/*---------------------------------------------------------------------------*\
| =========                 |                                                 |
| \\      /  F ield         | OpenFOAM: The Open Source CFD Toolbox           |
|  \\    /   O peration     | Version:  2112                                  |
|   \\  /    A nd           | Website:  www.openfoam.com                      |
|    \\/     M anipulation  |                                                 |
\*---------------------------------------------------------------------------*/
Build  : _80318542-20220301 OPENFOAM=2112 patch=220310 version=2112
Arch   : "LSB;label=32;scalar=64"
Exec   : chtMultiRegionFoam
Date   : Jun 09 2022
Time   : 19:20:07
Host   : 1M1SIHKYRW2LP
PID    : 506
I/O    : uncollated
Case   : /mnt/c/Users/UPC-4/Documents/openfoam/test554_3
nProcs : 1
trapFpe: Floating point exception trapping enabled (FOAM_SIGFPE).
fileModificationChecking : Monitoring run-time modified files using timeStampMaster (fileModificationSkew 5, maxFileModificationPolls 20)
allowSystemOperations : Allowing user-supplied system call operations

// * * * * * * * * * * * * * * * * * * * * * * * * * * * * * * * * * * * * * //
Create time

Create fluid mesh for region air for time = 0

Create solid mesh for region ups1 for time = 0

*** Reading fluid mesh thermophysical properties for region air

    Adding to thermoFluid

Selecting thermodynamics package 
{
    type            heRhoThermo;
    mixture         pureMixture;
    transport       const;
    thermo          hConst;
    equationOfState rhoConst;
    specie          specie;
    energy          sensibleEnthalpy;
}

    Adding to rhoFluid

    Adding to UFluid

    Adding to phiFluid

    Adding to hRefFluid

    Adding to ghFluid

    Adding to ghfFluid

    Adding to turbulenceFluid

Selecting turbulence model type RAS
Selecting RAS turbulence model realizableKE
RAS
{
    RASModel        realizableKE;
    turbulence      on;
    printCoeffs     on;
    A0              4;
    C2              1.9;
    sigmak          1;
    sigmaEps        1.2;
}

    Adding to reactionFluid

Combustion model not active: combustionProperties not found
Selecting combustion model none
    Adding to radiationFluid

Radiation model not active: radiationProperties not found
Selecting radiationModel none
    Adding to KFluid

    Adding to dpdtFluid

    Adding to fieldsFluid

    Adding to QdotFluid

    Adding MRF

No MRF models present

    Adding fvOptions

*** Reading solid mesh thermophysical properties for region ups1

    Adding to thermos

Selecting thermodynamics package 
{
    type            heSolidThermo;
    mixture         pureMixture;
    transport       constIso;
    thermo          hConst;
    equationOfState rhoConst;
    specie          specie;
    energy          sensibleEnthalpy;
}

    Adding to radiations

Radiation model not active: radiationProperties not found
Selecting radiationModel none
    Adding fvOptions

Creating finite volume options from "system/fvOptions"

Selecting finite volume options type scalarSemiImplicitSource
    Source: absolute_heat_source
    - selecting all cells
    - selected 1980 cell(s) with volume 5.1
Region: air Courant Number mean: 0.00923366 max: 1.88574
Region: ups1 Diffusion Number mean: 0.000118245 max: 0.000564201
deltaT = 0.1
Region: air Courant Number mean: 0.00923366 max: 1.88574
Region: ups1 Diffusion Number mean: 0.000118245 max: 0.000564201
deltaT = 0.120482
Time = 0.120482

diagonal:  Solving for rho, Initial residual = 0, Final residual = 0, No Iterations 0
DILUPBiCGStab:  Solving for Ux, Initial residual = 1, Final residual = 5.1954e-08, No Iterations 3
DILUPBiCGStab:  Solving for Uy, Initial residual = 1, Final residual = 2.79572e-08, No Iterations 3
DILUPBiCGStab:  Solving for Uz, Initial residual = 1, Final residual = 8.57379e-07, No Iterations 2
DILUPBiCGStab:  Solving for h, Initial residual = 1, Final residual = 3.14961e-08, No Iterations 3
Min/max T:284.85 328.724

Solving for fluid region air
GAMG:  Solving for p_rgh, Initial residual = 1, Final residual = 3.33933e-07, No Iterations 13
diagonal:  Solving for rho, Initial residual = 0, Final residual = 0, No Iterations 0
time step continuity errors (air): sum local = 8.86133e-09, global = -5.64944e-11, cumulative = -5.64944e-11
DILUPBiCGStab:  Solving for epsilon, Initial residual = 0.0374417, Final residual = 8.40389e-09, No Iterations 2
DILUPBiCGStab:  Solving for k, Initial residual = 1, Final residual = 5.2234e-07, No Iterations 2

Solving for solid region ups1
GAMG:  Solving for h, Initial residual = 1, Final residual = 1.16415e-14, No Iterations 1
Min/max T:314.85 314.85
ExecutionTime = 0.32 s  ClockTime = 0 s

Region: air Courant Number mean: 0.233207 max: 7.55661
Region: ups1 Diffusion Number mean: 0.000142464 max: 0.00067976
deltaT = 0.137216
Time = 0.257697

diagonal:  Solving for rho, Initial residual = 0, Final residual = 0, No Iterations 0
DILUPBiCGStab:  Solving for Ux, Initial residual = 0.59014, Final residual = 2.67786e-07, No Iterations 2
DILUPBiCGStab:  Solving for Uy, Initial residual = 0.647191, Final residual = 3.33857e-07, No Iterations 2
DILUPBiCGStab:  Solving for Uz, Initial residual = 0.573059, Final residual = 3.25311e-07, No Iterations 2
DILUPBiCGStab:  Solving for h, Initial residual = 0.210393, Final residual = 5.61358e-09, No Iterations 3
Min/max T:284.85 328.724

Solving for fluid region air
GAMG:  Solving for p_rgh, Initial residual = 0.289546, Final residual = 3.49658e-07, No Iterations 12
diagonal:  Solving for rho, Initial residual = 0, Final residual = 0, No Iterations 0
time step continuity errors (air): sum local = 1.34649e-07, global = -2.17081e-09, cumulative = -2.22731e-09
DILUPBiCGStab:  Solving for epsilon, Initial residual = 0.0173299, Final residual = 4.3677e-09, No Iterations 2
DILUPBiCGStab:  Solving for k, Initial residual = 0.591992, Final residual = 1.88858e-07, No Iterations 2

Solving for solid region ups1
GAMG:  Solving for h, Initial residual = 0.999961, Final residual = 0, No Iterations 1
Min/max T:314.85 314.851
ExecutionTime = 0.39 s  ClockTime = 0 s

Region: air Courant Number mean: 0.286661 max: 7.2024
Region: ups1 Diffusion Number mean: 0.000162251 max: 0.000774171
deltaT = 0.157134
Time = 0.414831

diagonal:  Solving for rho, Initial residual = 0, Final residual = 0, No Iterations 0
DILUPBiCGStab:  Solving for Ux, Initial residual = 0.888095, Final residual = 4.78581e-07, No Iterations 2
DILUPBiCGStab:  Solving for Uy, Initial residual = 0.695399, Final residual = 3.61869e-07, No Iterations 2
DILUPBiCGStab:  Solving for Uz, Initial residual = 0.720316, Final residual = 4.22911e-07, No Iterations 2
DILUPBiCGStab:  Solving for h, Initial residual = 0.235075, Final residual = 8.19622e-09, No Iterations 3
Min/max T:284.85 326.328

Solving for fluid region air
GAMG:  Solving for p_rgh, Initial residual = 0.423659, Final residual = 5.64728e-07, No Iterations 12
diagonal:  Solving for rho, Initial residual = 0, Final residual = 0, No Iterations 0
time step continuity errors (air): sum local = 1.123e-07, global = -3.43751e-09, cumulative = -5.66482e-09
DILUPBiCGStab:  Solving for epsilon, Initial residual = 0.00967465, Final residual = 2.60973e-09, No Iterations 2
DILUPBiCGStab:  Solving for k, Initial residual = 0.270553, Final residual = 8.70935e-08, No Iterations 2

Solving for solid region ups1
GAMG:  Solving for h, Initial residual = 0.999921, Final residual = 1.16407e-13, No Iterations 1
Min/max T:314.851 314.851
ExecutionTime = 0.46 s  ClockTime = 1 s

Region: air Courant Number mean: 0.333393 max: 8.0907
Region: ups1 Diffusion Number mean: 0.000185803 max: 0.000886551
deltaT = 0.177503
Time = 0.592334

diagonal:  Solving for rho, Initial residual = 0, Final residual = 0, No Iterations 0
DILUPBiCGStab:  Solving for Ux, Initial residual = 0.355525, Final residual = 1.1907e-07, No Iterations 2
DILUPBiCGStab:  Solving for Uy, Initial residual = 0.394663, Final residual = 1.52776e-07, No Iterations 2
DILUPBiCGStab:  Solving for Uz, Initial residual = 0.299834, Final residual = 1.81679e-07, No Iterations 2
DILUPBiCGStab:  Solving for h, Initial residual = 0.128482, Final residual = 1.03237e-08, No Iterations 3
Min/max T:284.85 324.735

Solving for fluid region air
GAMG:  Solving for p_rgh, Initial residual = 0.341883, Final residual = 4.84703e-07, No Iterations 12
diagonal:  Solving for rho, Initial residual = 0, Final residual = 0, No Iterations 0
time step continuity errors (air): sum local = 8.04077e-08, global = 2.48451e-09, cumulative = -3.18031e-09
DILUPBiCGStab:  Solving for epsilon, Initial residual = 0.0134943, Final residual = 3.64862e-09, No Iterations 2
DILUPBiCGStab:  Solving for k, Initial residual = 0.172129, Final residual = 5.89657e-08, No Iterations 2

Solving for solid region ups1
GAMG:  Solving for h, Initial residual = 0.999882, Final residual = 5.82009e-15, No Iterations 1
Min/max T:314.851 314.851
ExecutionTime = 0.53 s  ClockTime = 1 s

Region: air Courant Number mean: 0.395467 max: 8.88851
Region: ups1 Diffusion Number mean: 0.000209889 max: 0.00100147
deltaT = 0.195993
Time = 0.788328

diagonal:  Solving for rho, Initial residual = 0, Final residual = 0, No Iterations 0
DILUPBiCGStab:  Solving for Ux, Initial residual = 0.361704, Final residual = 2.4761e-07, No Iterations 2
DILUPBiCGStab:  Solving for Uy, Initial residual = 0.35412, Final residual = 2.12048e-07, No Iterations 2
DILUPBiCGStab:  Solving for Uz, Initial residual = 0.268913, Final residual = 1.23062e-07, No Iterations 2
DILUPBiCGStab:  Solving for h, Initial residual = 0.0949602, Final residual = 9.30185e-09, No Iterations 3
Min/max T:283.448 323.267

Solving for fluid region air
GAMG:  Solving for p_rgh, Initial residual = 0.482053, Final residual = 6.25465e-07, No Iterations 12
diagonal:  Solving for rho, Initial residual = 0, Final residual = 0, No Iterations 0
time step continuity errors (air): sum local = 5.64521e-08, global = 1.56582e-09, cumulative = -1.61449e-09
DILUPBiCGStab:  Solving for epsilon, Initial residual = 0.0227079, Final residual = 7.69053e-09, No Iterations 2
bounding epsilon, min: -0.0649497 max: 4.81448 average: 1.88915
DILUPBiCGStab:  Solving for k, Initial residual = 0.130711, Final residual = 4.79214e-08, No Iterations 2
bounding k, min: -0.0242743 max: 2.02591 average: 0.787627

Solving for solid region ups1
GAMG:  Solving for h, Initial residual = 0.999835, Final residual = 2.90991e-15, No Iterations 1
Min/max T:314.851 314.852
ExecutionTime = 0.6 s  ClockTime = 1 s

Region: air Courant Number mean: 0.444897 max: 9.12024
Region: ups1 Diffusion Number mean: 0.000231753 max: 0.00110579
deltaT = 0.214225
Time = 1.00255

diagonal:  Solving for rho, Initial residual = 0, Final residual = 0, No Iterations 0
DILUPBiCGStab:  Solving for Ux, Initial residual = 0.175602, Final residual = 8.82193e-08, No Iterations 2
DILUPBiCGStab:  Solving for Uy, Initial residual = 0.19169, Final residual = 8.81342e-08, No Iterations 2
DILUPBiCGStab:  Solving for Uz, Initial residual = 0.142133, Final residual = 9.75535e-08, No Iterations 2
DILUPBiCGStab:  Solving for h, Initial residual = 0.0716735, Final residual = 1.05193e-08, No Iterations 3
Min/max T:283.075 322.238

Solving for fluid region air
GAMG:  Solving for p_rgh, Initial residual = 0.294204, Final residual = 4.08979e-07, No Iterations 12
diagonal:  Solving for rho, Initial residual = 0, Final residual = 0, No Iterations 0
time step continuity errors (air): sum local = 4.32263e-08, global = -1.27624e-09, cumulative = -2.89073e-09
DILUPBiCGStab:  Solving for epsilon, Initial residual = 0.0327887, Final residual = 1.13777e-08, No Iterations 2
bounding epsilon, min: -0.0663182 max: 4.84637 average: 1.69221
DILUPBiCGStab:  Solving for k, Initial residual = 0.105738, Final residual = 4.13645e-08, No Iterations 2
bounding k, min: -0.0485147 max: 2.30515 average: 0.751574

Solving for solid region ups1
GAMG:  Solving for h, Initial residual = 0.999785, Final residual = 5.81953e-15, No Iterations 1
Min/max T:314.852 314.852
ExecutionTime = 0.67 s  ClockTime = 1 s

Region: air Courant Number mean: 0.507332 max: 10.339
Region: ups1 Diffusion Number mean: 0.000253311 max: 0.00120866
deltaT = 0.209243
Time = 1.2118

diagonal:  Solving for rho, Initial residual = 0, Final residual = 0, No Iterations 0
DILUPBiCGStab:  Solving for Ux, Initial residual = 0.128599, Final residual = 9.1425e-08, No Iterations 2
DILUPBiCGStab:  Solving for Uy, Initial residual = 0.136327, Final residual = 1.01168e-07, No Iterations 2
DILUPBiCGStab:  Solving for Uz, Initial residual = 0.105161, Final residual = 6.96505e-08, No Iterations 2
DILUPBiCGStab:  Solving for h, Initial residual = 0.0629152, Final residual = 8.07007e-09, No Iterations 3
Min/max T:283.054 321.388

Solving for fluid region air
GAMG:  Solving for p_rgh, Initial residual = 0.346355, Final residual = 4.06847e-07, No Iterations 12
diagonal:  Solving for rho, Initial residual = 0, Final residual = 0, No Iterations 0
time step continuity errors (air): sum local = 2.59209e-08, global = 8.00966e-10, cumulative = -2.08977e-09
DILUPBiCGStab:  Solving for epsilon, Initial residual = 0.0441804, Final residual = 1.4452e-08, No Iterations 2
DILUPBiCGStab:  Solving for k, Initial residual = 0.0854333, Final residual = 3.1046e-08, No Iterations 2
bounding k, min: -0.0310482 max: 2.60224 average: 0.719998

Solving for solid region ups1
GAMG:  Solving for h, Initial residual = 0.9997, Final residual = 1.01833e-14, No Iterations 1
Min/max T:314.852 314.853
ExecutionTime = 0.73 s  ClockTime = 1 s

Region: air Courant Number mean: 0.508419 max: 10.0233
Region: ups1 Diffusion Number mean: 0.00024742 max: 0.00118055
deltaT = 0.209243
Time = 1.42104

diagonal:  Solving for rho, Initial residual = 0, Final residual = 0, No Iterations 0
DILUPBiCGStab:  Solving for Ux, Initial residual = 0.0863564, Final residual = 5.13625e-08, No Iterations 2
DILUPBiCGStab:  Solving for Uy, Initial residual = 0.0897502, Final residual = 5.93694e-08, No Iterations 2
DILUPBiCGStab:  Solving for Uz, Initial residual = 0.0747966, Final residual = 1.79512e-09, No Iterations 3
DILUPBiCGStab:  Solving for h, Initial residual = 0.056482, Final residual = 6.05195e-09, No Iterations 3
Min/max T:283.354 320.513

Solving for fluid region air
GAMG:  Solving for p_rgh, Initial residual = 0.20627, Final residual = 6.97619e-07, No Iterations 11
diagonal:  Solving for rho, Initial residual = 0, Final residual = 0, No Iterations 0
time step continuity errors (air): sum local = 5.16264e-08, global = 1.7255e-09, cumulative = -3.64269e-10
DILUPBiCGStab:  Solving for epsilon, Initial residual = 0.0552852, Final residual = 1.75348e-08, No Iterations 2
bounding epsilon, min: -0.00742918 max: 5.08538 average: 1.39904
DILUPBiCGStab:  Solving for k, Initial residual = 0.0780388, Final residual = 2.81913e-08, No Iterations 2
bounding k, min: -0.0417783 max: 2.87773 average: 0.691874

Solving for solid region ups1
GAMG:  Solving for h, Initial residual = 0.999625, Final residual = 4.36395e-15, No Iterations 1
Min/max T:314.853 314.853
ExecutionTime = 0.79 s  ClockTime = 1 s

Region: air Courant Number mean: 0.526557 max: 10.3541
Region: ups1 Diffusion Number mean: 0.00024742 max: 0.00118055
deltaT = 0.204261
Time = 1.6253

diagonal:  Solving for rho, Initial residual = 0, Final residual = 0, No Iterations 0
DILUPBiCGStab:  Solving for Ux, Initial residual = 0.0602011, Final residual = 4.74335e-08, No Iterations 2
DILUPBiCGStab:  Solving for Uy, Initial residual = 0.0570613, Final residual = 4.27174e-08, No Iterations 2
DILUPBiCGStab:  Solving for Uz, Initial residual = 0.0534451, Final residual = 4.46298e-09, No Iterations 3
DILUPBiCGStab:  Solving for h, Initial residual = 0.0512631, Final residual = 4.85566e-09, No Iterations 3
Min/max T:283.208 319.616

Solving for fluid region air
GAMG:  Solving for p_rgh, Initial residual = 0.17696, Final residual = 5.1587e-07, No Iterations 11
diagonal:  Solving for rho, Initial residual = 0, Final residual = 0, No Iterations 0
time step continuity errors (air): sum local = 3.16321e-08, global = -1.07474e-09, cumulative = -1.43901e-09
DILUPBiCGStab:  Solving for epsilon, Initial residual = 0.0644388, Final residual = 1.7899e-08, No Iterations 2
bounding epsilon, min: -0.0149672 max: 5.80284 average: 1.29025
DILUPBiCGStab:  Solving for k, Initial residual = 0.0692828, Final residual = 2.72785e-08, No Iterations 2
bounding k, min: -0.00455182 max: 3.09152 average: 0.666809

Solving for solid region ups1
GAMG:  Solving for h, Initial residual = 0.999539, Final residual = 0, No Iterations 1
Min/max T:314.814 314.854
ExecutionTime = 0.85 s  ClockTime = 1 s

Region: air Courant Number mean: 0.528087 max: 10.1224
Region: ups1 Diffusion Number mean: 0.000241529 max: 0.00115244
deltaT = 0.199398
Time = 1.8247

diagonal:  Solving for rho, Initial residual = 0, Final residual = 0, No Iterations 0
DILUPBiCGStab:  Solving for Ux, Initial residual = 0.0533855, Final residual = 4.07648e-08, No Iterations 2
DILUPBiCGStab:  Solving for Uy, Initial residual = 0.0491078, Final residual = 2.56318e-08, No Iterations 2
DILUPBiCGStab:  Solving for Uz, Initial residual = 0.0458844, Final residual = 4.56299e-08, No Iterations 2
DILUPBiCGStab:  Solving for h, Initial residual = 0.0456282, Final residual = 4.03178e-09, No Iterations 3
Min/max T:283.039 318.966

Solving for fluid region air
GAMG:  Solving for p_rgh, Initial residual = 0.123798, Final residual = 3.53072e-07, No Iterations 11
diagonal:  Solving for rho, Initial residual = 0, Final residual = 0, No Iterations 0
time step continuity errors (air): sum local = 2.26484e-08, global = 7.82725e-10, cumulative = -6.5628e-10
DILUPBiCGStab:  Solving for epsilon, Initial residual = 0.0706209, Final residual = 1.78672e-08, No Iterations 2
bounding epsilon, min: -0.0318486 max: 6.46743 average: 1.19889
DILUPBiCGStab:  Solving for k, Initial residual = 0.0624279, Final residual = 2.5951e-08, No Iterations 2
bounding k, min: -0.0540781 max: 3.22692 average: 0.64423

Solving for solid region ups1
GAMG:  Solving for h, Initial residual = 0.999283, Final residual = 2.9084e-15, No Iterations 1
Min/max T:314.847 314.854
ExecutionTime = 0.92 s  ClockTime = 1 s

Region: air Courant Number mean: 0.531291 max: 9.92083
Region: ups1 Diffusion Number mean: 0.000235778 max: 0.001125
deltaT = 0.199398
Time = 2.02409

diagonal:  Solving for rho, Initial residual = 0, Final residual = 0, No Iterations 0
DILUPBiCGStab:  Solving for Ux, Initial residual = 0.0442292, Final residual = 3.71515e-08, No Iterations 2
DILUPBiCGStab:  Solving for Uy, Initial residual = 0.0343368, Final residual = 2.66945e-08, No Iterations 2
DILUPBiCGStab:  Solving for Uz, Initial residual = 0.0385677, Final residual = 4.15512e-09, No Iterations 3
DILUPBiCGStab:  Solving for h, Initial residual = 0.0423103, Final residual = 3.71574e-09, No Iterations 3
Min/max T:282.948 318.484

Solving for fluid region air
GAMG:  Solving for p_rgh, Initial residual = 0.100786, Final residual = 6.74732e-07, No Iterations 10
diagonal:  Solving for rho, Initial residual = 0, Final residual = 0, No Iterations 0
time step continuity errors (air): sum local = 4.08203e-08, global = 1.2293e-09, cumulative = 5.73021e-10
DILUPBiCGStab:  Solving for epsilon, Initial residual = 0.0741782, Final residual = 1.623e-08, No Iterations 2
bounding epsilon, min: -0.0581091 max: 7.02179 average: 1.12096
DILUPBiCGStab:  Solving for k, Initial residual = 0.0572413, Final residual = 3.24695e-08, No Iterations 2
bounding k, min: -0.0600649 max: 3.27743 average: 0.623823

Solving for solid region ups1
GAMG:  Solving for h, Initial residual = 0.999211, Final residual = 0, No Iterations 1
Min/max T:314.83 314.854
ExecutionTime = 1 s  ClockTime = 1 s

Region: air Courant Number mean: 0.546106 max: 9.83251
Region: ups1 Diffusion Number mean: 0.000235778 max: 0.001125
deltaT = 0.20451
Time = 2.22861

diagonal:  Solving for rho, Initial residual = 0, Final residual = 0, No Iterations 0
DILUPBiCGStab:  Solving for Ux, Initial residual = 0.0434241, Final residual = 3.6198e-08, No Iterations 2
DILUPBiCGStab:  Solving for Uy, Initial residual = 0.0362746, Final residual = 2.54399e-08, No Iterations 2
DILUPBiCGStab:  Solving for Uz, Initial residual = 0.0366897, Final residual = 1.10471e-09, No Iterations 3
DILUPBiCGStab:  Solving for h, Initial residual = 0.0409687, Final residual = 3.62464e-09, No Iterations 3
Min/max T:283.104 318.074

Solving for fluid region air
GAMG:  Solving for p_rgh, Initial residual = 0.0816167, Final residual = 4.88476e-07, No Iterations 10
diagonal:  Solving for rho, Initial residual = 0, Final residual = 0, No Iterations 0
time step continuity errors (air): sum local = 3.10651e-08, global = -7.86371e-10, cumulative = -2.1335e-10
DILUPBiCGStab:  Solving for epsilon, Initial residual = 0.0748026, Final residual = 1.63169e-08, No Iterations 2
bounding epsilon, min: -0.0461228 max: 7.44916 average: 1.05277
DILUPBiCGStab:  Solving for k, Initial residual = 0.0532871, Final residual = 3.4362e-08, No Iterations 2
bounding k, min: -0.048294 max: 3.25657 average: 0.604921

Solving for solid region ups1
GAMG:  Solving for h, Initial residual = 0.99914, Final residual = 0, No Iterations 1
Min/max T:314.85 314.855
ExecutionTime = 1.13 s  ClockTime = 1 s

Region: air Courant Number mean: 0.577063 max: 10.2265
Region: ups1 Diffusion Number mean: 0.000241824 max: 0.00115385
deltaT = 0.199267
Time = 2.42787

diagonal:  Solving for rho, Initial residual = 0, Final residual = 0, No Iterations 0
DILUPBiCGStab:  Solving for Ux, Initial residual = 0.0399044, Final residual = 2.99121e-08, No Iterations 2
DILUPBiCGStab:  Solving for Uy, Initial residual = 0.0312058, Final residual = 2.33429e-08, No Iterations 2
DILUPBiCGStab:  Solving for Uz, Initial residual = 0.0338079, Final residual = 9.03098e-10, No Iterations 3
DILUPBiCGStab:  Solving for h, Initial residual = 0.0393094, Final residual = 3.30158e-09, No Iterations 3
Min/max T:283.368 317.633

Solving for fluid region air
GAMG:  Solving for p_rgh, Initial residual = 0.069787, Final residual = 3.39559e-07, No Iterations 10
diagonal:  Solving for rho, Initial residual = 0, Final residual = 0, No Iterations 0
time step continuity errors (air): sum local = 2.06012e-08, global = 5.83658e-10, cumulative = 3.70308e-10
DILUPBiCGStab:  Solving for epsilon, Initial residual = 0.072399, Final residual = 1.64455e-08, No Iterations 2
bounding epsilon, min: -0.0171112 max: 7.74861 average: 0.992702
DILUPBiCGStab:  Solving for k, Initial residual = 0.0486765, Final residual = 2.588e-08, No Iterations 2
bounding k, min: -0.0484951 max: 3.18794 average: 0.587773

Solving for solid region ups1
GAMG:  Solving for h, Initial residual = 0.999038, Final residual = 0, No Iterations 1
Min/max T:314.838 314.855
ExecutionTime = 1.2 s  ClockTime = 1 s

Region: air Courant Number mean: 0.579657 max: 10.0971
Region: ups1 Diffusion Number mean: 0.000235623 max: 0.00112426
deltaT = 0.199267
Time = 2.62714

diagonal:  Solving for rho, Initial residual = 0, Final residual = 0, No Iterations 0
DILUPBiCGStab:  Solving for Ux, Initial residual = 0.0392814, Final residual = 2.82082e-08, No Iterations 2
DILUPBiCGStab:  Solving for Uy, Initial residual = 0.0325579, Final residual = 2.46137e-08, No Iterations 2
DILUPBiCGStab:  Solving for Uz, Initial residual = 0.0321514, Final residual = 8.61446e-10, No Iterations 3
DILUPBiCGStab:  Solving for h, Initial residual = 0.0374296, Final residual = 2.98757e-09, No Iterations 3
Min/max T:283.264 317.18

Solving for fluid region air
GAMG:  Solving for p_rgh, Initial residual = 0.0584623, Final residual = 6.03377e-07, No Iterations 9
diagonal:  Solving for rho, Initial residual = 0, Final residual = 0, No Iterations 0
time step continuity errors (air): sum local = 3.71854e-08, global = 1.15475e-09, cumulative = 1.52506e-09
DILUPBiCGStab:  Solving for epsilon, Initial residual = 0.0697927, Final residual = 1.68336e-08, No Iterations 2
bounding epsilon, min: -0.00136914 max: 7.9257 average: 0.939904
DILUPBiCGStab:  Solving for k, Initial residual = 0.0460599, Final residual = 3.59525e-08, No Iterations 2
bounding k, min: -0.0332171 max: 3.09399 average: 0.57204

Solving for solid region ups1
GAMG:  Solving for h, Initial residual = 0.998934, Final residual = 0, No Iterations 1
Min/max T:314.84 314.856
ExecutionTime = 1.28 s  ClockTime = 1 s

Region: air Courant Number mean: 0.597971 max: 10.1677
Region: ups1 Diffusion Number mean: 0.000235623 max: 0.00112426
deltaT = 0.194023
Time = 2.82116

diagonal:  Solving for rho, Initial residual = 0, Final residual = 0, No Iterations 0
DILUPBiCGStab:  Solving for Ux, Initial residual = 0.0380609, Final residual = 2.47881e-08, No Iterations 2
DILUPBiCGStab:  Solving for Uy, Initial residual = 0.0304659, Final residual = 2.13634e-08, No Iterations 2
DILUPBiCGStab:  Solving for Uz, Initial residual = 0.030701, Final residual = 1.16271e-09, No Iterations 3
DILUPBiCGStab:  Solving for h, Initial residual = 0.0353302, Final residual = 2.62875e-09, No Iterations 3
Min/max T:282.965 316.734

Solving for fluid region air
GAMG:  Solving for p_rgh, Initial residual = 0.0546671, Final residual = 3.93151e-07, No Iterations 9
diagonal:  Solving for rho, Initial residual = 0, Final residual = 0, No Iterations 0
time step continuity errors (air): sum local = 2.35896e-08, global = 4.52626e-10, cumulative = 1.97768e-09
DILUPBiCGStab:  Solving for epsilon, Initial residual = 0.0661028, Final residual = 1.69791e-08, No Iterations 2
bounding epsilon, min: -0.0666003 max: 7.98495 average: 0.893054
DILUPBiCGStab:  Solving for k, Initial residual = 0.0433844, Final residual = 3.39142e-08, No Iterations 2
bounding k, min: -0.0546088 max: 3.00421 average: 0.557612

Solving for solid region ups1
GAMG:  Solving for h, Initial residual = 0.99881, Final residual = 0, No Iterations 1
Min/max T:314.833 314.856
ExecutionTime = 1.35 s  ClockTime = 2 s

Region: air Courant Number mean: 0.599895 max: 9.89588
Region: ups1 Diffusion Number mean: 0.000229423 max: 0.00109468
deltaT = 0.194023
Time = 3.01518

diagonal:  Solving for rho, Initial residual = 0, Final residual = 0, No Iterations 0
DILUPBiCGStab:  Solving for Ux, Initial residual = 0.0375791, Final residual = 2.36921e-08, No Iterations 2
DILUPBiCGStab:  Solving for Uy, Initial residual = 0.0308841, Final residual = 2.16774e-08, No Iterations 2
DILUPBiCGStab:  Solving for Uz, Initial residual = 0.0297779, Final residual = 2.96086e-08, No Iterations 2
DILUPBiCGStab:  Solving for h, Initial residual = 0.0341694, Final residual = 2.48977e-09, No Iterations 3
Min/max T:282.748 316.316

Solving for fluid region air
GAMG:  Solving for p_rgh, Initial residual = 0.0530404, Final residual = 3.2835e-07, No Iterations 8
diagonal:  Solving for rho, Initial residual = 0, Final residual = 0, No Iterations 0
time step continuity errors (air): sum local = 1.99209e-08, global = 1.84983e-10, cumulative = 2.16267e-09
DILUPBiCGStab:  Solving for epsilon, Initial residual = 0.0625356, Final residual = 1.56805e-08, No Iterations 2
bounding epsilon, min: -0.0450673 max: 7.92587 average: 0.851725
DILUPBiCGStab:  Solving for k, Initial residual = 0.0412237, Final residual = 5.87122e-10, No Iterations 3
bounding k, min: -0.0462096 max: 3.05819 average: 0.544325

Solving for solid region ups1
GAMG:  Solving for h, Initial residual = 0.998705, Final residual = 0, No Iterations 1
Min/max T:314.834 314.857
ExecutionTime = 1.42 s  ClockTime = 2 s

Region: air Courant Number mean: 0.618095 max: 9.97219
Region: ups1 Diffusion Number mean: 0.000229423 max: 0.00109468
deltaT = 0.194023
Time = 3.20921

diagonal:  Solving for rho, Initial residual = 0, Final residual = 0, No Iterations 0
DILUPBiCGStab:  Solving for Ux, Initial residual = 0.0363771, Final residual = 2.25908e-08, No Iterations 2
DILUPBiCGStab:  Solving for Uy, Initial residual = 0.0303532, Final residual = 1.94493e-08, No Iterations 2
DILUPBiCGStab:  Solving for Uz, Initial residual = 0.02894, Final residual = 2.80423e-08, No Iterations 2
DILUPBiCGStab:  Solving for h, Initial residual = 0.0334127, Final residual = 2.43439e-09, No Iterations 3
Min/max T:282.752 316.016

Solving for fluid region air
GAMG:  Solving for p_rgh, Initial residual = 0.0519012, Final residual = 8.51406e-07, No Iterations 8
diagonal:  Solving for rho, Initial residual = 0, Final residual = 0, No Iterations 0
time step continuity errors (air): sum local = 5.19045e-08, global = 7.95453e-10, cumulative = 2.95812e-09
DILUPBiCGStab:  Solving for epsilon, Initial residual = 0.0582172, Final residual = 1.40589e-08, No Iterations 2
bounding epsilon, min: -0.0278176 max: 8.80475 average: 0.81475
DILUPBiCGStab:  Solving for k, Initial residual = 0.0345708, Final residual = 3.38624e-08, No Iterations 2
bounding k, min: -0.0298924 max: 3.15643 average: 0.532052

Solving for solid region ups1
GAMG:  Solving for h, Initial residual = 0.998615, Final residual = 2.90674e-15, No Iterations 1
Min/max T:314.829 314.857
ExecutionTime = 1.49 s  ClockTime = 2 s

Region: air Courant Number mean: 0.636552 max: 10.0682
Region: ups1 Diffusion Number mean: 0.000229423 max: 0.00109468
deltaT = 0.194023
Time = 3.40323

diagonal:  Solving for rho, Initial residual = 0, Final residual = 0, No Iterations 0
DILUPBiCGStab:  Solving for Ux, Initial residual = 0.0354933, Final residual = 2.11013e-08, No Iterations 2
DILUPBiCGStab:  Solving for Uy, Initial residual = 0.0304238, Final residual = 1.87174e-08, No Iterations 2
DILUPBiCGStab:  Solving for Uz, Initial residual = 0.0278324, Final residual = 2.65961e-08, No Iterations 2
DILUPBiCGStab:  Solving for h, Initial residual = 0.0326247, Final residual = 2.37072e-09, No Iterations 3
Min/max T:282.822 315.913

Solving for fluid region air
GAMG:  Solving for p_rgh, Initial residual = 0.0527742, Final residual = 6.05291e-07, No Iterations 7
diagonal:  Solving for rho, Initial residual = 0, Final residual = 0, No Iterations 0
time step continuity errors (air): sum local = 3.71286e-08, global = 2.05165e-09, cumulative = 5.00977e-09
DILUPBiCGStab:  Solving for epsilon, Initial residual = 0.0539058, Final residual = 1.2906e-08, No Iterations 2
bounding epsilon, min: -0.0465152 max: 11.6918 average: 0.781594
DILUPBiCGStab:  Solving for k, Initial residual = 0.0374743, Final residual = 5.30119e-10, No Iterations 3
bounding k, min: -0.0435641 max: 3.21499 average: 0.520665

Solving for solid region ups1
GAMG:  Solving for h, Initial residual = 0.998474, Final residual = 5.81349e-15, No Iterations 1
Min/max T:314.83 314.857
ExecutionTime = 1.56 s  ClockTime = 2 s

Region: air Courant Number mean: 0.655297 max: 9.99818
Region: ups1 Diffusion Number mean: 0.000229423 max: 0.00109468
deltaT = 0.194023
Time = 3.59725

diagonal:  Solving for rho, Initial residual = 0, Final residual = 0, No Iterations 0
DILUPBiCGStab:  Solving for Ux, Initial residual = 0.0346563, Final residual = 1.91981e-08, No Iterations 2
DILUPBiCGStab:  Solving for Uy, Initial residual = 0.0297228, Final residual = 1.74921e-08, No Iterations 2
DILUPBiCGStab:  Solving for Uz, Initial residual = 0.026707, Final residual = 2.61049e-08, No Iterations 2
DILUPBiCGStab:  Solving for h, Initial residual = 0.0315379, Final residual = 2.28812e-09, No Iterations 3
Min/max T:282.922 315.778

Solving for fluid region air
GAMG:  Solving for p_rgh, Initial residual = 0.0514796, Final residual = 4.84511e-07, No Iterations 8
diagonal:  Solving for rho, Initial residual = 0, Final residual = 0, No Iterations 0
time step continuity errors (air): sum local = 2.96967e-08, global = 2.15936e-10, cumulative = 5.22571e-09
DILUPBiCGStab:  Solving for epsilon, Initial residual = 0.0499518, Final residual = 1.24725e-08, No Iterations 2
bounding epsilon, min: -0.0107547 max: 14.4091 average: 0.751714
DILUPBiCGStab:  Solving for k, Initial residual = 0.0360214, Final residual = 5.53795e-10, No Iterations 3
bounding k, min: -0.0453016 max: 3.24073 average: 0.510027

Solving for solid region ups1
GAMG:  Solving for h, Initial residual = 0.998246, Final residual = 0, No Iterations 1
Min/max T:314.835 314.858
ExecutionTime = 1.62 s  ClockTime = 2 s

Region: air Courant Number mean: 0.674251 max: 9.72793
Region: ups1 Diffusion Number mean: 0.000229423 max: 0.00109468
deltaT = 0.200086
Time = 3.79734

diagonal:  Solving for rho, Initial residual = 0, Final residual = 0, No Iterations 0
DILUPBiCGStab:  Solving for Ux, Initial residual = 0.0340766, Final residual = 1.81218e-08, No Iterations 2
DILUPBiCGStab:  Solving for Uy, Initial residual = 0.0295373, Final residual = 1.79406e-08, No Iterations 2
DILUPBiCGStab:  Solving for Uz, Initial residual = 0.0256322, Final residual = 7.90502e-10, No Iterations 3
DILUPBiCGStab:  Solving for h, Initial residual = 0.03097, Final residual = 2.16042e-09, No Iterations 3
Min/max T:282.993 315.622

Solving for fluid region air
GAMG:  Solving for p_rgh, Initial residual = 0.0491862, Final residual = 5.82749e-07, No Iterations 7
diagonal:  Solving for rho, Initial residual = 0, Final residual = 0, No Iterations 0
time step continuity errors (air): sum local = 3.68668e-08, global = -9.61812e-10, cumulative = 4.26389e-09
DILUPBiCGStab:  Solving for epsilon, Initial residual = 0.0469846, Final residual = 1.28483e-08, No Iterations 2
bounding epsilon, min: -0.071465 max: 16.704 average: 0.724587
DILUPBiCGStab:  Solving for k, Initial residual = 0.0348437, Final residual = 5.03646e-10, No Iterations 3
bounding k, min: -0.0551162 max: 3.23685 average: 0.500154

Solving for solid region ups1
GAMG:  Solving for h, Initial residual = 0.998193, Final residual = 2.90576e-15, No Iterations 1
Min/max T:314.834 314.858
ExecutionTime = 1.69 s  ClockTime = 2 s

Region: air Courant Number mean: 0.714956 max: 9.83702
Region: ups1 Diffusion Number mean: 0.000236592 max: 0.00112889
deltaT = 0.206755
Time = 4.00409

diagonal:  Solving for rho, Initial residual = 0, Final residual = 0, No Iterations 0
DILUPBiCGStab:  Solving for Ux, Initial residual = 0.0335678, Final residual = 1.7573e-08, No Iterations 2
DILUPBiCGStab:  Solving for Uy, Initial residual = 0.0292149, Final residual = 1.809e-08, No Iterations 2
DILUPBiCGStab:  Solving for Uz, Initial residual = 0.0248736, Final residual = 2.48388e-08, No Iterations 2
DILUPBiCGStab:  Solving for h, Initial residual = 0.0304042, Final residual = 2.08173e-09, No Iterations 3
Min/max T:282.581 315.542

Solving for fluid region air
GAMG:  Solving for p_rgh, Initial residual = 0.0472553, Final residual = 9.85564e-07, No Iterations 7
diagonal:  Solving for rho, Initial residual = 0, Final residual = 0, No Iterations 0
time step continuity errors (air): sum local = 6.44867e-08, global = 1.74023e-09, cumulative = 6.00412e-09
DILUPBiCGStab:  Solving for epsilon, Initial residual = 0.0445267, Final residual = 1.35725e-08, No Iterations 2
bounding epsilon, min: -0.0842901 max: 18.3927 average: 0.699869
DILUPBiCGStab:  Solving for k, Initial residual = 0.0339856, Final residual = 4.80371e-10, No Iterations 3
bounding k, min: -0.0346561 max: 3.20378 average: 0.490937

Solving for solid region ups1
GAMG:  Solving for h, Initial residual = 0.998102, Final residual = 2.90552e-15, No Iterations 1
Min/max T:314.839 314.859
ExecutionTime = 1.78 s  ClockTime = 2 s

Region: air Courant Number mean: 0.759217 max: 10.2197
Region: ups1 Diffusion Number mean: 0.000244479 max: 0.00116652
deltaT = 0.199864
Time = 4.20396

diagonal:  Solving for rho, Initial residual = 0, Final residual = 0, No Iterations 0
DILUPBiCGStab:  Solving for Ux, Initial residual = 0.0324556, Final residual = 1.59083e-08, No Iterations 2
DILUPBiCGStab:  Solving for Uy, Initial residual = 0.0285251, Final residual = 1.66992e-08, No Iterations 2
DILUPBiCGStab:  Solving for Uz, Initial residual = 0.0239004, Final residual = 2.18788e-08, No Iterations 2
DILUPBiCGStab:  Solving for h, Initial residual = 0.0295228, Final residual = 1.86149e-09, No Iterations 3
Min/max T:282.325 315.577

Solving for fluid region air
GAMG:  Solving for p_rgh, Initial residual = 0.044925, Final residual = 4.65535e-07, No Iterations 7
diagonal:  Solving for rho, Initial residual = 0, Final residual = 0, No Iterations 0
time step continuity errors (air): sum local = 2.93754e-08, global = 1.50742e-09, cumulative = 7.51155e-09
DILUPBiCGStab:  Solving for epsilon, Initial residual = 0.0415837, Final residual = 1.29529e-08, No Iterations 2
bounding epsilon, min: -0.0489614 max: 19.4096 average: 0.677402
DILUPBiCGStab:  Solving for k, Initial residual = 0.032611, Final residual = 4.90434e-10, No Iterations 3
bounding k, min: -0.0676145 max: 3.14126 average: 0.48236

Solving for solid region ups1
GAMG:  Solving for h, Initial residual = 0.997952, Final residual = 0, No Iterations 1
Min/max T:314.833 314.859
ExecutionTime = 1.85 s  ClockTime = 2 s

Region: air Courant Number mean: 0.753346 max: 10.1843
Region: ups1 Diffusion Number mean: 0.000236329 max: 0.00112763
deltaT = 0.193201
Time = 4.39716

diagonal:  Solving for rho, Initial residual = 0, Final residual = 0, No Iterations 0
DILUPBiCGStab:  Solving for Ux, Initial residual = 0.031445, Final residual = 1.47275e-08, No Iterations 2
DILUPBiCGStab:  Solving for Uy, Initial residual = 0.0279223, Final residual = 1.56981e-08, No Iterations 2
DILUPBiCGStab:  Solving for Uz, Initial residual = 0.0229644, Final residual = 1.97067e-08, No Iterations 2
DILUPBiCGStab:  Solving for h, Initial residual = 0.0285781, Final residual = 1.68673e-09, No Iterations 3
Min/max T:282.251 315.576

Solving for fluid region air
GAMG:  Solving for p_rgh, Initial residual = 0.0432207, Final residual = 7.18623e-07, No Iterations 7
diagonal:  Solving for rho, Initial residual = 0, Final residual = 0, No Iterations 0
time step continuity errors (air): sum local = 4.39603e-08, global = -1.87219e-10, cumulative = 7.32433e-09
DILUPBiCGStab:  Solving for epsilon, Initial residual = 0.0390302, Final residual = 1.21089e-08, No Iterations 2
bounding epsilon, min: -0.0193902 max: 19.751 average: 0.657414
DILUPBiCGStab:  Solving for k, Initial residual = 0.0309262, Final residual = 4.74334e-10, No Iterations 3
bounding k, min: -0.0209643 max: 3.12615 average: 0.47456

Solving for solid region ups1
GAMG:  Solving for h, Initial residual = 0.997707, Final residual = 2.90448e-15, No Iterations 1
Min/max T:314.833 314.859
ExecutionTime = 1.91 s  ClockTime = 2 s

Region: air Courant Number mean: 0.746715 max: 10.1107
Region: ups1 Diffusion Number mean: 0.000228452 max: 0.00109004
deltaT = 0.193201
Time = 4.59036

diagonal:  Solving for rho, Initial residual = 0, Final residual = 0, No Iterations 0
DILUPBiCGStab:  Solving for Ux, Initial residual = 0.0308428, Final residual = 1.4582e-08, No Iterations 2
DILUPBiCGStab:  Solving for Uy, Initial residual = 0.0274387, Final residual = 1.55375e-08, No Iterations 2
DILUPBiCGStab:  Solving for Uz, Initial residual = 0.0221785, Final residual = 1.91521e-08, No Iterations 2
DILUPBiCGStab:  Solving for h, Initial residual = 0.0281837, Final residual = 1.62325e-09, No Iterations 3
Min/max T:282.243 315.542

Solving for fluid region air
GAMG:  Solving for p_rgh, Initial residual = 0.0423917, Final residual = 4.32722e-07, No Iterations 7
diagonal:  Solving for rho, Initial residual = 0, Final residual = 0, No Iterations 0
time step continuity errors (air): sum local = 2.66457e-08, global = 8.37553e-10, cumulative = 8.16188e-09
DILUPBiCGStab:  Solving for epsilon, Initial residual = 0.0367885, Final residual = 1.22408e-08, No Iterations 2
bounding epsilon, min: -0.0534772 max: 19.4904 average: 0.639341
DILUPBiCGStab:  Solving for k, Initial residual = 0.0305572, Final residual = 5.49979e-10, No Iterations 3
bounding k, min: -0.0456171 max: 3.10678 average: 0.467221

Solving for solid region ups1
GAMG:  Solving for h, Initial residual = 0.997548, Final residual = 2.90391e-15, No Iterations 1
Min/max T:314.838 314.86
ExecutionTime = 1.96 s  ClockTime = 2 s

Region: air Courant Number mean: 0.765539 max: 10.2906
Region: ups1 Diffusion Number mean: 0.000228452 max: 0.00109004
deltaT = 0.186539
Time = 4.7769

diagonal:  Solving for rho, Initial residual = 0, Final residual = 0, No Iterations 0
DILUPBiCGStab:  Solving for Ux, Initial residual = 0.0300721, Final residual = 1.40187e-08, No Iterations 2
DILUPBiCGStab:  Solving for Uy, Initial residual = 0.0267659, Final residual = 1.44841e-08, No Iterations 2
DILUPBiCGStab:  Solving for Uz, Initial residual = 0.0212659, Final residual = 1.76854e-08, No Iterations 2
DILUPBiCGStab:  Solving for h, Initial residual = 0.027517, Final residual = 1.46227e-09, No Iterations 3
Min/max T:282.318 315.492

Solving for fluid region air
GAMG:  Solving for p_rgh, Initial residual = 0.0411224, Final residual = 5.3729e-07, No Iterations 8
diagonal:  Solving for rho, Initial residual = 0, Final residual = 0, No Iterations 0
time step continuity errors (air): sum local = 3.19209e-08, global = 7.13721e-10, cumulative = 8.8756e-09
DILUPBiCGStab:  Solving for epsilon, Initial residual = 0.0346542, Final residual = 1.20909e-08, No Iterations 2
bounding epsilon, min: -0.091832 max: 18.7235 average: 0.623134
DILUPBiCGStab:  Solving for k, Initial residual = 0.0295153, Final residual = 5.80078e-10, No Iterations 3
bounding k, min: -0.046447 max: 3.0687 average: 0.460596

Solving for solid region ups1
GAMG:  Solving for h, Initial residual = 0.997279, Final residual = 0, No Iterations 1
Min/max T:314.834 314.86
ExecutionTime = 2.02 s  ClockTime = 2 s

Region: air Courant Number mean: 0.757355 max: 10.0426
Region: ups1 Diffusion Number mean: 0.000220574 max: 0.00105246
deltaT = 0.186539
Time = 4.96344

diagonal:  Solving for rho, Initial residual = 0, Final residual = 0, No Iterations 0
DILUPBiCGStab:  Solving for Ux, Initial residual = 0.0294841, Final residual = 1.4202e-08, No Iterations 2
DILUPBiCGStab:  Solving for Uy, Initial residual = 0.0263124, Final residual = 1.40086e-08, No Iterations 2
DILUPBiCGStab:  Solving for Uz, Initial residual = 0.020581, Final residual = 1.68405e-08, No Iterations 2
DILUPBiCGStab:  Solving for h, Initial residual = 0.0270237, Final residual = 1.37718e-09, No Iterations 3
Min/max T:282.379 315.436

Solving for fluid region air
GAMG:  Solving for p_rgh, Initial residual = 0.0403541, Final residual = 5.59395e-07, No Iterations 8
diagonal:  Solving for rho, Initial residual = 0, Final residual = 0, No Iterations 0
time step continuity errors (air): sum local = 3.33481e-08, global = 8.28113e-10, cumulative = 9.70371e-09
DILUPBiCGStab:  Solving for epsilon, Initial residual = 0.0331714, Final residual = 1.20688e-08, No Iterations 2
bounding epsilon, min: -0.0682044 max: 17.6096 average: 0.608833
DILUPBiCGStab:  Solving for k, Initial residual = 0.0287992, Final residual = 6.83688e-10, No Iterations 3
bounding k, min: -0.0396706 max: 3.18826 average: 0.454357

Solving for solid region ups1
GAMG:  Solving for h, Initial residual = 0.997044, Final residual = 2.90279e-15, No Iterations 1
Min/max T:314.84 314.861
ExecutionTime = 2.08 s  ClockTime = 3 s

Region: air Courant Number mean: 0.775577 max: 10.1031
Region: ups1 Diffusion Number mean: 0.000220574 max: 0.00105246
deltaT = 0.186539
Time = 5.14998

diagonal:  Solving for rho, Initial residual = 0, Final residual = 0, No Iterations 0
DILUPBiCGStab:  Solving for Ux, Initial residual = 0.0287712, Final residual = 1.43318e-08, No Iterations 2
DILUPBiCGStab:  Solving for Uy, Initial residual = 0.0258621, Final residual = 1.36212e-08, No Iterations 2
DILUPBiCGStab:  Solving for Uz, Initial residual = 0.0199163, Final residual = 1.60379e-08, No Iterations 2
DILUPBiCGStab:  Solving for h, Initial residual = 0.0263786, Final residual = 1.30832e-09, No Iterations 3
Min/max T:282.34 315.381

Solving for fluid region air
GAMG:  Solving for p_rgh, Initial residual = 0.0396757, Final residual = 5.44649e-07, No Iterations 8
diagonal:  Solving for rho, Initial residual = 0, Final residual = 0, No Iterations 0
time step continuity errors (air): sum local = 3.256e-08, global = 8.45437e-10, cumulative = 1.05492e-08
DILUPBiCGStab:  Solving for epsilon, Initial residual = 0.0316102, Final residual = 1.19158e-08, No Iterations 2
bounding epsilon, min: -0.0132561 max: 16.266 average: 0.596086
DILUPBiCGStab:  Solving for k, Initial residual = 0.0279734, Final residual = 7.87791e-10, No Iterations 3
bounding k, min: -0.0622969 max: 3.32427 average: 0.448621

Solving for solid region ups1
GAMG:  Solving for h, Initial residual = 0.996729, Final residual = 2.90217e-15, No Iterations 1
Min/max T:314.835 314.861
ExecutionTime = 2.14 s  ClockTime = 3 s

Region: air Courant Number mean: 0.793732 max: 10.1318
Region: ups1 Diffusion Number mean: 0.000220574 max: 0.00105246
deltaT = 0.186539
Time = 5.33652

diagonal:  Solving for rho, Initial residual = 0, Final residual = 0, No Iterations 0
DILUPBiCGStab:  Solving for Ux, Initial residual = 0.0280609, Final residual = 1.43911e-08, No Iterations 2
DILUPBiCGStab:  Solving for Uy, Initial residual = 0.0254836, Final residual = 1.35178e-08, No Iterations 2
DILUPBiCGStab:  Solving for Uz, Initial residual = 0.0192712, Final residual = 1.52246e-08, No Iterations 2
DILUPBiCGStab:  Solving for h, Initial residual = 0.0258771, Final residual = 1.27683e-09, No Iterations 3
Min/max T:282.078 315.33

Solving for fluid region air
GAMG:  Solving for p_rgh, Initial residual = 0.0393454, Final residual = 5.0164e-07, No Iterations 8
diagonal:  Solving for rho, Initial residual = 0, Final residual = 0, No Iterations 0
time step continuity errors (air): sum local = 3.01587e-08, global = 8.14721e-10, cumulative = 1.13639e-08
DILUPBiCGStab:  Solving for epsilon, Initial residual = 0.0300801, Final residual = 1.18433e-08, No Iterations 2
bounding epsilon, min: -0.0479094 max: 14.7799 average: 0.584841
DILUPBiCGStab:  Solving for k, Initial residual = 0.027268, Final residual = 1.07803e-09, No Iterations 3
bounding k, min: -0.0353916 max: 3.4219 average: 0.44322

Solving for solid region ups1
GAMG:  Solving for h, Initial residual = 0.996331, Final residual = 0, No Iterations 1
Min/max T:314.826 314.862
ExecutionTime = 2.19 s  ClockTime = 3 s

Region: air Courant Number mean: 0.811569 max: 10.1385
Region: ups1 Diffusion Number mean: 0.000220574 max: 0.00105246
deltaT = 0.186539
Time = 5.52306

diagonal:  Solving for rho, Initial residual = 0, Final residual = 0, No Iterations 0
DILUPBiCGStab:  Solving for Ux, Initial residual = 0.0275049, Final residual = 1.4383e-08, No Iterations 2
DILUPBiCGStab:  Solving for Uy, Initial residual = 0.0249978, Final residual = 1.35034e-08, No Iterations 2
DILUPBiCGStab:  Solving for Uz, Initial residual = 0.0186799, Final residual = 1.48097e-08, No Iterations 2
DILUPBiCGStab:  Solving for h, Initial residual = 0.0256285, Final residual = 1.27811e-09, No Iterations 3
Min/max T:281.956 315.286

Solving for fluid region air
GAMG:  Solving for p_rgh, Initial residual = 0.0390792, Final residual = 4.57289e-07, No Iterations 8
diagonal:  Solving for rho, Initial residual = 0, Final residual = 0, No Iterations 0
time step continuity errors (air): sum local = 2.76045e-08, global = 7.40575e-10, cumulative = 1.21044e-08
DILUPBiCGStab:  Solving for epsilon, Initial residual = 0.0286128, Final residual = 1.16051e-08, No Iterations 2
bounding epsilon, min: -0.0558491 max: 13.2163 average: 0.575237
DILUPBiCGStab:  Solving for k, Initial residual = 0.0267047, Final residual = 2.46123e-08, No Iterations 2
bounding k, min: -0.0554204 max: 3.67518 average: 0.438156

Solving for solid region ups1
GAMG:  Solving for h, Initial residual = 0.995707, Final residual = 8.70102e-15, No Iterations 1
Min/max T:314.814 314.862
ExecutionTime = 2.25 s  ClockTime = 3 s

Region: air Courant Number mean: 0.829326 max: 10.1309
Region: ups1 Diffusion Number mean: 0.000220574 max: 0.00105246
deltaT = 0.186539
Time = 5.7096

diagonal:  Solving for rho, Initial residual = 0, Final residual = 0, No Iterations 0
DILUPBiCGStab:  Solving for Ux, Initial residual = 0.0269504, Final residual = 1.42231e-08, No Iterations 2
DILUPBiCGStab:  Solving for Uy, Initial residual = 0.0245614, Final residual = 1.37659e-08, No Iterations 2
DILUPBiCGStab:  Solving for Uz, Initial residual = 0.018066, Final residual = 1.43424e-08, No Iterations 2
DILUPBiCGStab:  Solving for h, Initial residual = 0.0253414, Final residual = 1.26849e-09, No Iterations 3
Min/max T:281.995 315.263

Solving for fluid region air
GAMG:  Solving for p_rgh, Initial residual = 0.0389036, Final residual = 5.01666e-07, No Iterations 8
diagonal:  Solving for rho, Initial residual = 0, Final residual = 0, No Iterations 0
time step continuity errors (air): sum local = 3.03498e-08, global = 7.98316e-10, cumulative = 1.29028e-08
DILUPBiCGStab:  Solving for epsilon, Initial residual = 0.0271035, Final residual = 1.08689e-08, No Iterations 2
bounding epsilon, min: -0.0655777 max: 11.6266 average: 0.567319
DILUPBiCGStab:  Solving for k, Initial residual = 0.0261422, Final residual = 1.49758e-08, No Iterations 2
bounding k, min: -0.0471334 max: 3.9922 average: 0.43347

Solving for solid region ups1
GAMG:  Solving for h, Initial residual = 0.994816, Final residual = 0, No Iterations 1
Min/max T:314.798 314.862
ExecutionTime = 2.31 s  ClockTime = 3 s

Region: air Courant Number mean: 0.84713 max: 10.1154
Region: ups1 Diffusion Number mean: 0.000220574 max: 0.00105246
deltaT = 0.186539
Time = 5.89613

diagonal:  Solving for rho, Initial residual = 0, Final residual = 0, No Iterations 0
DILUPBiCGStab:  Solving for Ux, Initial residual = 0.0263479, Final residual = 1.39932e-08, No Iterations 2
DILUPBiCGStab:  Solving for Uy, Initial residual = 0.0241306, Final residual = 1.40212e-08, No Iterations 2
DILUPBiCGStab:  Solving for Uz, Initial residual = 0.0174952, Final residual = 1.39551e-08, No Iterations 2
DILUPBiCGStab:  Solving for h, Initial residual = 0.0249671, Final residual = 1.25916e-09, No Iterations 3
Min/max T:282.087 315.295

Solving for fluid region air
GAMG:  Solving for p_rgh, Initial residual = 0.0382851, Final residual = 4.48525e-07, No Iterations 8
diagonal:  Solving for rho, Initial residual = 0, Final residual = 0, No Iterations 0
time step continuity errors (air): sum local = 2.71688e-08, global = 7.27164e-10, cumulative = 1.36299e-08
DILUPBiCGStab:  Solving for epsilon, Initial residual = 0.0259339, Final residual = 1.01948e-08, No Iterations 2
DILUPBiCGStab:  Solving for k, Initial residual = 0.0256279, Final residual = 1.27836e-08, No Iterations 2
bounding k, min: -0.0361748 max: 4.27667 average: 0.429086

Solving for solid region ups1
GAMG:  Solving for h, Initial residual = 0.993576, Final residual = 2.89519e-15, No Iterations 1
Min/max T:314.778 314.863
ExecutionTime = 2.37 s  ClockTime = 3 s

Region: air Courant Number mean: 0.865036 max: 10.1906
Region: ups1 Diffusion Number mean: 0.000220574 max: 0.00105246
deltaT = 0.186539
Time = 6.08267

diagonal:  Solving for rho, Initial residual = 0, Final residual = 0, No Iterations 0
DILUPBiCGStab:  Solving for Ux, Initial residual = 0.0258362, Final residual = 1.36665e-08, No Iterations 2
DILUPBiCGStab:  Solving for Uy, Initial residual = 0.023761, Final residual = 1.42381e-08, No Iterations 2
DILUPBiCGStab:  Solving for Uz, Initial residual = 0.0169163, Final residual = 1.35558e-08, No Iterations 2
DILUPBiCGStab:  Solving for h, Initial residual = 0.0244941, Final residual = 1.24814e-09, No Iterations 3
Min/max T:282.207 315.327

Solving for fluid region air
GAMG:  Solving for p_rgh, Initial residual = 0.0374239, Final residual = 4.34986e-07, No Iterations 8
diagonal:  Solving for rho, Initial residual = 0, Final residual = 0, No Iterations 0
time step continuity errors (air): sum local = 2.64693e-08, global = 7.37413e-10, cumulative = 1.43673e-08
DILUPBiCGStab:  Solving for epsilon, Initial residual = 0.0248434, Final residual = 9.93567e-09, No Iterations 2
bounding epsilon, min: -0.100996 max: 8.68918 average: 0.556077
DILUPBiCGStab:  Solving for k, Initial residual = 0.0250217, Final residual = 1.82548e-08, No Iterations 3
bounding k, min: -0.0449715 max: 4.51502 average: 0.424965

Solving for solid region ups1
GAMG:  Solving for h, Initial residual = 0.991858, Final residual = 2.8911e-15, No Iterations 1
Min/max T:314.753 314.863
ExecutionTime = 2.43 s  ClockTime = 3 s

Region: air Courant Number mean: 0.883062 max: 10.4172
Region: ups1 Diffusion Number mean: 0.000220574 max: 0.00105246
deltaT = 0.17806
Time = 6.26073

diagonal:  Solving for rho, Initial residual = 0, Final residual = 0, No Iterations 0
DILUPBiCGStab:  Solving for Ux, Initial residual = 0.0250773, Final residual = 1.26081e-08, No Iterations 2
DILUPBiCGStab:  Solving for Uy, Initial residual = 0.0231986, Final residual = 1.35098e-08, No Iterations 2
DILUPBiCGStab:  Solving for Uz, Initial residual = 0.0161606, Final residual = 1.22148e-08, No Iterations 2
DILUPBiCGStab:  Solving for h, Initial residual = 0.0237398, Final residual = 1.15171e-09, No Iterations 3
Min/max T:282.365 315.358

Solving for fluid region air
GAMG:  Solving for p_rgh, Initial residual = 0.0371505, Final residual = 4.59407e-07, No Iterations 8
diagonal:  Solving for rho, Initial residual = 0, Final residual = 0, No Iterations 0
time step continuity errors (air): sum local = 2.6685e-08, global = 7.64556e-10, cumulative = 1.51319e-08
DILUPBiCGStab:  Solving for epsilon, Initial residual = 0.0234181, Final residual = 8.62789e-09, No Iterations 2
bounding epsilon, min: -0.0122273 max: 10.3294 average: 0.553053
DILUPBiCGStab:  Solving for k, Initial residual = 0.0241165, Final residual = 3.82294e-09, No Iterations 3
bounding k, min: -0.0127944 max: 4.73382 average: 0.421194

Solving for solid region ups1
GAMG:  Solving for h, Initial residual = 0.989072, Final residual = 0, No Iterations 1
Min/max T:314.724 314.864
ExecutionTime = 2.49 s  ClockTime = 3 s

Region: air Courant Number mean: 0.859665 max: 10.107
Region: ups1 Diffusion Number mean: 0.000210548 max: 0.00100462
deltaT = 0.17806
Time = 6.43879

diagonal:  Solving for rho, Initial residual = 0, Final residual = 0, No Iterations 0
DILUPBiCGStab:  Solving for Ux, Initial residual = 0.0245527, Final residual = 1.24185e-08, No Iterations 2
DILUPBiCGStab:  Solving for Uy, Initial residual = 0.0228861, Final residual = 1.37507e-08, No Iterations 2
DILUPBiCGStab:  Solving for Uz, Initial residual = 0.0155695, Final residual = 1.18164e-08, No Iterations 2
DILUPBiCGStab:  Solving for h, Initial residual = 0.0233776, Final residual = 1.16024e-09, No Iterations 3
Min/max T:282.226 315.388

Solving for fluid region air
GAMG:  Solving for p_rgh, Initial residual = 0.036121, Final residual = 4.45266e-07, No Iterations 8
diagonal:  Solving for rho, Initial residual = 0, Final residual = 0, No Iterations 0
time step continuity errors (air): sum local = 2.60095e-08, global = 7.07765e-10, cumulative = 1.58397e-08
DILUPBiCGStab:  Solving for epsilon, Initial residual = 0.0224364, Final residual = 8.11474e-09, No Iterations 2
bounding epsilon, min: -0.0326518 max: 12.2208 average: 0.551576
DILUPBiCGStab:  Solving for k, Initial residual = 0.0235378, Final residual = 1.76003e-09, No Iterations 3
bounding k, min: -0.03202 max: 5.31457 average: 0.417528

Solving for solid region ups1
GAMG:  Solving for h, Initial residual = 0.986026, Final residual = 0, No Iterations 1
Min/max T:314.69 314.864
ExecutionTime = 2.55 s  ClockTime = 3 s

Region: air Courant Number mean: 0.87623 max: 10.2257
Region: ups1 Diffusion Number mean: 0.000210548 max: 0.00100462
deltaT = 0.17806
Time = 6.61685

diagonal:  Solving for rho, Initial residual = 0, Final residual = 0, No Iterations 0
DILUPBiCGStab:  Solving for Ux, Initial residual = 0.0239742, Final residual = 1.22585e-08, No Iterations 2
DILUPBiCGStab:  Solving for Uy, Initial residual = 0.0225376, Final residual = 1.41396e-08, No Iterations 2
DILUPBiCGStab:  Solving for Uz, Initial residual = 0.0149946, Final residual = 1.15264e-08, No Iterations 2
DILUPBiCGStab:  Solving for h, Initial residual = 0.0231016, Final residual = 1.14262e-09, No Iterations 3
Min/max T:282.173 315.416

Solving for fluid region air
GAMG:  Solving for p_rgh, Initial residual = 0.0348162, Final residual = 9.94508e-07, No Iterations 7
diagonal:  Solving for rho, Initial residual = 0, Final residual = 0, No Iterations 0
time step continuity errors (air): sum local = 5.82713e-08, global = 1.73922e-09, cumulative = 1.75789e-08
DILUPBiCGStab:  Solving for epsilon, Initial residual = 0.0210837, Final residual = 7.67379e-09, No Iterations 2
bounding epsilon, min: -0.072823 max: 14.8038 average: 0.551594
DILUPBiCGStab:  Solving for k, Initial residual = 0.0215154, Final residual = 8.58099e-10, No Iterations 3
bounding k, min: -0.0440116 max: 5.88619 average: 0.414091

Solving for solid region ups1
GAMG:  Solving for h, Initial residual = 0.981999, Final residual = 2.86705e-15, No Iterations 1
Min/max T:314.65 314.864
ExecutionTime = 2.6 s  ClockTime = 3 s

Region: air Courant Number mean: 0.892761 max: 10.3088
Region: ups1 Diffusion Number mean: 0.000210548 max: 0.00100462
deltaT = 0.169157
Time = 6.78601

diagonal:  Solving for rho, Initial residual = 0, Final residual = 0, No Iterations 0
DILUPBiCGStab:  Solving for Ux, Initial residual = 0.0231357, Final residual = 1.13304e-08, No Iterations 2
DILUPBiCGStab:  Solving for Uy, Initial residual = 0.0219569, Final residual = 1.34459e-08, No Iterations 2
DILUPBiCGStab:  Solving for Uz, Initial residual = 0.0143403, Final residual = 1.05475e-08, No Iterations 2
DILUPBiCGStab:  Solving for h, Initial residual = 0.0224762, Final residual = 9.8818e-10, No Iterations 3
Min/max T:282.271 315.442

Solving for fluid region air
GAMG:  Solving for p_rgh, Initial residual = 0.0340468, Final residual = 6.33094e-07, No Iterations 7
diagonal:  Solving for rho, Initial residual = 0, Final residual = 0, No Iterations 0
time step continuity errors (air): sum local = 3.5204e-08, global = 1.027e-09, cumulative = 1.86059e-08
DILUPBiCGStab:  Solving for epsilon, Initial residual = 0.0196352, Final residual = 6.58028e-09, No Iterations 2
bounding epsilon, min: -0.0245761 max: 17.5888 average: 0.553218
DILUPBiCGStab:  Solving for k, Initial residual = 0.0221811, Final residual = 9.15255e-10, No Iterations 3
bounding k, min: -0.0418939 max: 6.41705 average: 0.410877

Solving for solid region ups1
GAMG:  Solving for h, Initial residual = 0.975635, Final residual = 1.71042e-14, No Iterations 1
Min/max T:314.605 314.865
ExecutionTime = 2.65 s  ClockTime = 3 s

Region: air Courant Number mean: 0.863616 max: 9.84719
Region: ups1 Diffusion Number mean: 0.000200021 max: 0.000954386
deltaT = 0.169157
Time = 6.95517

diagonal:  Solving for rho, Initial residual = 0, Final residual = 0, No Iterations 0
DILUPBiCGStab:  Solving for Ux, Initial residual = 0.0225526, Final residual = 1.125e-08, No Iterations 2
DILUPBiCGStab:  Solving for Uy, Initial residual = 0.0217052, Final residual = 1.36352e-08, No Iterations 2
DILUPBiCGStab:  Solving for Uz, Initial residual = 0.0138533, Final residual = 1.02911e-08, No Iterations 2
DILUPBiCGStab:  Solving for h, Initial residual = 0.0221448, Final residual = 8.93541e-10, No Iterations 3
Min/max T:282.304 315.467

Solving for fluid region air
GAMG:  Solving for p_rgh, Initial residual = 0.0313215, Final residual = 4.74216e-07, No Iterations 7
diagonal:  Solving for rho, Initial residual = 0, Final residual = 0, No Iterations 0
time step continuity errors (air): sum local = 2.66722e-08, global = 4.04967e-10, cumulative = 1.90109e-08
DILUPBiCGStab:  Solving for epsilon, Initial residual = 0.0185628, Final residual = 6.37335e-09, No Iterations 2
bounding epsilon, min: -0.0494812 max: 20.4961 average: 0.556067
DILUPBiCGStab:  Solving for k, Initial residual = 0.0217303, Final residual = 1.15568e-09, No Iterations 3
bounding k, min: -0.0427519 max: 6.88938 average: 0.40772

Solving for solid region ups1
GAMG:  Solving for h, Initial residual = 0.96919, Final residual = 1.41724e-14, No Iterations 1
Min/max T:314.555 314.865
ExecutionTime = 2.7 s  ClockTime = 3 s

Region: air Courant Number mean: 0.879428 max: 9.88293
Region: ups1 Diffusion Number mean: 0.000200021 max: 0.000954386
deltaT = 0.169157
Time = 7.12433

diagonal:  Solving for rho, Initial residual = 0, Final residual = 0, No Iterations 0
DILUPBiCGStab:  Solving for Ux, Initial residual = 0.0219906, Final residual = 1.13086e-08, No Iterations 2
DILUPBiCGStab:  Solving for Uy, Initial residual = 0.0214655, Final residual = 1.36926e-08, No Iterations 2
DILUPBiCGStab:  Solving for Uz, Initial residual = 0.0133557, Final residual = 9.86624e-09, No Iterations 2
DILUPBiCGStab:  Solving for h, Initial residual = 0.0217121, Final residual = 7.71363e-10, No Iterations 3
Min/max T:282.363 315.489

Solving for fluid region air
GAMG:  Solving for p_rgh, Initial residual = 0.0302025, Final residual = 4.01778e-07, No Iterations 7
diagonal:  Solving for rho, Initial residual = 0, Final residual = 0, No Iterations 0
time step continuity errors (air): sum local = 2.28511e-08, global = 5.85782e-10, cumulative = 1.95966e-08
DILUPBiCGStab:  Solving for epsilon, Initial residual = 0.0173802, Final residual = 5.87455e-09, No Iterations 2
bounding epsilon, min: -0.000992899 max: 23.4335 average: 0.560064
DILUPBiCGStab:  Solving for k, Initial residual = 0.021175, Final residual = 1.28257e-09, No Iterations 3
bounding k, min: -0.0165989 max: 7.2882 average: 0.404644

Solving for solid region ups1
GAMG:  Solving for h, Initial residual = 0.961313, Final residual = 2.25157e-14, No Iterations 1
Min/max T:314.5 314.865
ExecutionTime = 2.76 s  ClockTime = 3 s

Region: air Courant Number mean: 0.895362 max: 9.90699
Region: ups1 Diffusion Number mean: 0.000200021 max: 0.000954386
deltaT = 0.169157
Time = 7.29348

diagonal:  Solving for rho, Initial residual = 0, Final residual = 0, No Iterations 0
DILUPBiCGStab:  Solving for Ux, Initial residual = 0.0214999, Final residual = 1.151e-08, No Iterations 2
DILUPBiCGStab:  Solving for Uy, Initial residual = 0.0212639, Final residual = 1.34513e-08, No Iterations 2
DILUPBiCGStab:  Solving for Uz, Initial residual = 0.0128627, Final residual = 9.37681e-09, No Iterations 2
DILUPBiCGStab:  Solving for h, Initial residual = 0.0213224, Final residual = 6.59442e-10, No Iterations 3
Min/max T:282.487 315.51

Solving for fluid region air
GAMG:  Solving for p_rgh, Initial residual = 0.0294507, Final residual = 4.59957e-07, No Iterations 7
diagonal:  Solving for rho, Initial residual = 0, Final residual = 0, No Iterations 0
time step continuity errors (air): sum local = 2.64493e-08, global = 4.18108e-10, cumulative = 2.00147e-08
DILUPBiCGStab:  Solving for epsilon, Initial residual = 0.0161638, Final residual = 5.3769e-09, No Iterations 2
bounding epsilon, min: -0.029253 max: 26.3003 average: 0.564862
DILUPBiCGStab:  Solving for k, Initial residual = 0.0206139, Final residual = 1.2657e-09, No Iterations 3
bounding k, min: -0.0307891 max: 7.60615 average: 0.401529

Solving for solid region ups1
GAMG:  Solving for h, Initial residual = 0.950955, Final residual = 1.95131e-14, No Iterations 1
Min/max T:314.441 314.866
ExecutionTime = 2.82 s  ClockTime = 3 s

Region: air Courant Number mean: 0.911095 max: 9.92397
Region: ups1 Diffusion Number mean: 0.000200021 max: 0.000954386
deltaT = 0.169157
Time = 7.46264

diagonal:  Solving for rho, Initial residual = 0, Final residual = 0, No Iterations 0
DILUPBiCGStab:  Solving for Ux, Initial residual = 0.0209796, Final residual = 1.17565e-08, No Iterations 2
DILUPBiCGStab:  Solving for Uy, Initial residual = 0.0210177, Final residual = 1.27915e-08, No Iterations 2
DILUPBiCGStab:  Solving for Uz, Initial residual = 0.012359, Final residual = 8.98879e-09, No Iterations 2
DILUPBiCGStab:  Solving for h, Initial residual = 0.0210001, Final residual = 5.64146e-10, No Iterations 3
Min/max T:282.646 315.53

Solving for fluid region air
GAMG:  Solving for p_rgh, Initial residual = 0.0288494, Final residual = 5.0913e-07, No Iterations 7
diagonal:  Solving for rho, Initial residual = 0, Final residual = 0, No Iterations 0
time step continuity errors (air): sum local = 2.96105e-08, global = 3.87103e-10, cumulative = 2.04018e-08
DILUPBiCGStab:  Solving for epsilon, Initial residual = 0.015124, Final residual = 4.8754e-09, No Iterations 2
bounding epsilon, min: -0.0670798 max: 29.0076 average: 0.570295
DILUPBiCGStab:  Solving for k, Initial residual = 0.020068, Final residual = 9.58599e-10, No Iterations 3
bounding k, min: -0.0569355 max: 7.84333 average: 0.398406

Solving for solid region ups1
GAMG:  Solving for h, Initial residual = 0.936686, Final residual = 2.19969e-14, No Iterations 1
Min/max T:314.377 314.866
ExecutionTime = 2.88 s  ClockTime = 4 s

Region: air Courant Number mean: 0.926556 max: 9.93738
Region: ups1 Diffusion Number mean: 0.000200021 max: 0.000954386
deltaT = 0.169157
Time = 7.6318

diagonal:  Solving for rho, Initial residual = 0, Final residual = 0, No Iterations 0
DILUPBiCGStab:  Solving for Ux, Initial residual = 0.0204238, Final residual = 1.18558e-08, No Iterations 2
DILUPBiCGStab:  Solving for Uy, Initial residual = 0.0207744, Final residual = 1.12127e-08, No Iterations 2
DILUPBiCGStab:  Solving for Uz, Initial residual = 0.0119092, Final residual = 8.68408e-09, No Iterations 2
DILUPBiCGStab:  Solving for h, Initial residual = 0.0207319, Final residual = 5.14413e-10, No Iterations 3
Min/max T:282.75 315.548

Solving for fluid region air
GAMG:  Solving for p_rgh, Initial residual = 0.0280974, Final residual = 6.01497e-07, No Iterations 7
diagonal:  Solving for rho, Initial residual = 0, Final residual = 0, No Iterations 0
time step continuity errors (air): sum local = 3.53865e-08, global = 4.75596e-10, cumulative = 2.08774e-08
DILUPBiCGStab:  Solving for epsilon, Initial residual = 0.0142768, Final residual = 4.41733e-09, No Iterations 2
bounding epsilon, min: -0.0178949 max: 31.4846 average: 0.57608
DILUPBiCGStab:  Solving for k, Initial residual = 0.0195391, Final residual = 1.42527e-08, No Iterations 2
bounding k, min: -0.0270222 max: 8.08508 average: 0.395294

Solving for solid region ups1
GAMG:  Solving for h, Initial residual = 0.918319, Final residual = 2.96992e-14, No Iterations 1
Min/max T:314.311 314.866
ExecutionTime = 2.94 s  ClockTime = 4 s

Region: air Courant Number mean: 0.941811 max: 9.94918
Region: ups1 Diffusion Number mean: 0.000200021 max: 0.000954386
deltaT = 0.169157
Time = 7.80096

diagonal:  Solving for rho, Initial residual = 0, Final residual = 0, No Iterations 0
DILUPBiCGStab:  Solving for Ux, Initial residual = 0.0199204, Final residual = 1.18545e-08, No Iterations 2
DILUPBiCGStab:  Solving for Uy, Initial residual = 0.0204892, Final residual = 1.17525e-08, No Iterations 2
DILUPBiCGStab:  Solving for Uz, Initial residual = 0.011504, Final residual = 8.49637e-09, No Iterations 2
DILUPBiCGStab:  Solving for h, Initial residual = 0.0204751, Final residual = 5.08959e-10, No Iterations 3
Min/max T:282.593 315.564

Solving for fluid region air
GAMG:  Solving for p_rgh, Initial residual = 0.027435, Final residual = 5.98872e-07, No Iterations 7
diagonal:  Solving for rho, Initial residual = 0, Final residual = 0, No Iterations 0
time step continuity errors (air): sum local = 3.56713e-08, global = 4.14521e-10, cumulative = 2.1292e-08
DILUPBiCGStab:  Solving for epsilon, Initial residual = 0.0135481, Final residual = 3.97973e-09, No Iterations 2
bounding epsilon, min: -0.0397107 max: 33.6839 average: 0.581877
DILUPBiCGStab:  Solving for k, Initial residual = 0.0191473, Final residual = 1.13924e-08, No Iterations 2
bounding k, min: -0.0488188 max: 8.43426 average: 0.392055

Solving for solid region ups1
GAMG:  Solving for h, Initial residual = 0.895713, Final residual = 2.90181e-14, No Iterations 1
Min/max T:314.248 314.867
ExecutionTime = 3.06 s  ClockTime = 4 s

Region: air Courant Number mean: 0.956888 max: 9.96042
Region: ups1 Diffusion Number mean: 0.000200021 max: 0.000954386
deltaT = 0.169157
Time = 7.97011

diagonal:  Solving for rho, Initial residual = 0, Final residual = 0, No Iterations 0
DILUPBiCGStab:  Solving for Ux, Initial residual = 0.019456, Final residual = 1.16251e-08, No Iterations 2
DILUPBiCGStab:  Solving for Uy, Initial residual = 0.020252, Final residual = 1.18292e-09, No Iterations 3
DILUPBiCGStab:  Solving for Uz, Initial residual = 0.0111729, Final residual = 8.37686e-09, No Iterations 2
DILUPBiCGStab:  Solving for h, Initial residual = 0.0201055, Final residual = 5.26023e-10, No Iterations 3
Min/max T:282.604 315.58

Solving for fluid region air
GAMG:  Solving for p_rgh, Initial residual = 0.0267988, Final residual = 7.07493e-07, No Iterations 7
diagonal:  Solving for rho, Initial residual = 0, Final residual = 0, No Iterations 0
time step continuity errors (air): sum local = 4.27298e-08, global = 5.31876e-10, cumulative = 2.18238e-08
DILUPBiCGStab:  Solving for epsilon, Initial residual = 0.0129611, Final residual = 3.68323e-09, No Iterations 2
DILUPBiCGStab:  Solving for k, Initial residual = 0.0187789, Final residual = 1.26092e-08, No Iterations 2
bounding k, min: -0.00501489 max: 8.72067 average: 0.388777

Solving for solid region ups1
GAMG:  Solving for h, Initial residual = 0.869324, Final residual = 2.82157e-14, No Iterations 1
Min/max T:314.189 314.867
ExecutionTime = 3.11 s  ClockTime = 4 s

Region: air Courant Number mean: 0.972313 max: 9.97154
Region: ups1 Diffusion Number mean: 0.000200021 max: 0.000954386
deltaT = 0.169157
Time = 8.13927

diagonal:  Solving for rho, Initial residual = 0, Final residual = 0, No Iterations 0
DILUPBiCGStab:  Solving for Ux, Initial residual = 0.0189885, Final residual = 1.11963e-08, No Iterations 2
DILUPBiCGStab:  Solving for Uy, Initial residual = 0.0201107, Final residual = 6.54732e-10, No Iterations 3
DILUPBiCGStab:  Solving for Uz, Initial residual = 0.0108822, Final residual = 8.49508e-09, No Iterations 2
DILUPBiCGStab:  Solving for h, Initial residual = 0.0197177, Final residual = 5.30455e-10, No Iterations 3
Min/max T:282.691 315.595

Solving for fluid region air
GAMG:  Solving for p_rgh, Initial residual = 0.0262572, Final residual = 7.04746e-07, No Iterations 7
diagonal:  Solving for rho, Initial residual = 0, Final residual = 0, No Iterations 0
time step continuity errors (air): sum local = 4.32375e-08, global = 4.45064e-10, cumulative = 2.22689e-08
DILUPBiCGStab:  Solving for epsilon, Initial residual = 0.0123894, Final residual = 3.45362e-09, No Iterations 2
bounding epsilon, min: -0.0294897 max: 43.3532 average: 0.592324
DILUPBiCGStab:  Solving for k, Initial residual = 0.0184436, Final residual = 1.24822e-08, No Iterations 2
bounding k, min: -0.041601 max: 8.94945 average: 0.385379

Solving for solid region ups1
GAMG:  Solving for h, Initial residual = 0.839071, Final residual = 1.48843e-14, No Iterations 1
Min/max T:314.138 314.868
ExecutionTime = 3.17 s  ClockTime = 4 s

Region: air Courant Number mean: 0.988032 max: 10.0104
Region: ups1 Diffusion Number mean: 0.000200021 max: 0.000954386
deltaT = 0.169157
Time = 8.30843

diagonal:  Solving for rho, Initial residual = 0, Final residual = 0, No Iterations 0
DILUPBiCGStab:  Solving for Ux, Initial residual = 0.0185351, Final residual = 1.0552e-08, No Iterations 2
DILUPBiCGStab:  Solving for Uy, Initial residual = 0.0199349, Final residual = 5.24728e-10, No Iterations 3
DILUPBiCGStab:  Solving for Uz, Initial residual = 0.0106014, Final residual = 8.38145e-09, No Iterations 2
DILUPBiCGStab:  Solving for h, Initial residual = 0.0193709, Final residual = 5.30238e-10, No Iterations 3
Min/max T:282.828 315.609

Solving for fluid region air
GAMG:  Solving for p_rgh, Initial residual = 0.025932, Final residual = 7.90905e-07, No Iterations 7
diagonal:  Solving for rho, Initial residual = 0, Final residual = 0, No Iterations 0
time step continuity errors (air): sum local = 4.93614e-08, global = 2.83542e-10, cumulative = 2.25524e-08
DILUPBiCGStab:  Solving for epsilon, Initial residual = 0.0119139, Final residual = 3.25762e-09, No Iterations 2
bounding epsilon, min: -0.00913925 max: 48.1579 average: 0.596587
DILUPBiCGStab:  Solving for k, Initial residual = 0.0183334, Final residual = 1.3476e-08, No Iterations 2
bounding k, min: -0.00120621 max: 9.1267 average: 0.381942

Solving for solid region ups1
GAMG:  Solving for h, Initial residual = 0.806128, Final residual = 2.62707e-14, No Iterations 1
Min/max T:314.098 314.868
ExecutionTime = 3.23 s  ClockTime = 4 s

Region: air Courant Number mean: 1.00363 max: 10.1297
Region: ups1 Diffusion Number mean: 0.000200021 max: 0.000954386
deltaT = 0.169157
Time = 8.47758

diagonal:  Solving for rho, Initial residual = 0, Final residual = 0, No Iterations 0
DILUPBiCGStab:  Solving for Ux, Initial residual = 0.0180659, Final residual = 9.82222e-09, No Iterations 2
DILUPBiCGStab:  Solving for Uy, Initial residual = 0.0196804, Final residual = 4.39122e-10, No Iterations 3
DILUPBiCGStab:  Solving for Uz, Initial residual = 0.0103458, Final residual = 8.08624e-09, No Iterations 2
DILUPBiCGStab:  Solving for h, Initial residual = 0.0191043, Final residual = 5.26064e-10, No Iterations 3
Min/max T:282.823 315.622

Solving for fluid region air
GAMG:  Solving for p_rgh, Initial residual = 0.0256699, Final residual = 7.81392e-07, No Iterations 7
diagonal:  Solving for rho, Initial residual = 0, Final residual = 0, No Iterations 0
time step continuity errors (air): sum local = 4.96834e-08, global = 7.49835e-10, cumulative = 2.33023e-08
DILUPBiCGStab:  Solving for epsilon, Initial residual = 0.0116033, Final residual = 3.15193e-09, No Iterations 2
bounding epsilon, min: -0.0136871 max: 52.6912 average: 0.600093
DILUPBiCGStab:  Solving for k, Initial residual = 0.0181272, Final residual = 1.39044e-08, No Iterations 2
bounding k, min: -0.0720279 max: 9.25851 average: 0.378432

Solving for solid region ups1
GAMG:  Solving for h, Initial residual = 0.770549, Final residual = 1.60137e-14, No Iterations 1
Min/max T:314.072 314.868
ExecutionTime = 3.29 s  ClockTime = 4 s

Region: air Courant Number mean: 1.01913 max: 10.245
Region: ups1 Diffusion Number mean: 0.000200021 max: 0.000954386
deltaT = 0.169157
Time = 8.64674

diagonal:  Solving for rho, Initial residual = 0, Final residual = 0, No Iterations 0
DILUPBiCGStab:  Solving for Ux, Initial residual = 0.0175897, Final residual = 9.31126e-09, No Iterations 2
DILUPBiCGStab:  Solving for Uy, Initial residual = 0.0193872, Final residual = 3.79161e-10, No Iterations 3
DILUPBiCGStab:  Solving for Uz, Initial residual = 0.01016, Final residual = 8.32039e-09, No Iterations 2
DILUPBiCGStab:  Solving for h, Initial residual = 0.0188476, Final residual = 5.27538e-10, No Iterations 3
Min/max T:282.821 315.635

Solving for fluid region air
GAMG:  Solving for p_rgh, Initial residual = 0.0253798, Final residual = 8.32875e-07, No Iterations 7
diagonal:  Solving for rho, Initial residual = 0, Final residual = 0, No Iterations 0
time step continuity errors (air): sum local = 5.40313e-08, global = 8.26878e-10, cumulative = 2.41292e-08
DILUPBiCGStab:  Solving for epsilon, Initial residual = 0.0112245, Final residual = 3.01634e-09, No Iterations 2
bounding epsilon, min: -0.0111922 max: 56.9294 average: 0.602704
DILUPBiCGStab:  Solving for k, Initial residual = 0.0178636, Final residual = 1.35371e-08, No Iterations 2
bounding k, min: -0.0725411 max: 9.35064 average: 0.375

Solving for solid region ups1
GAMG:  Solving for h, Initial residual = 0.734271, Final residual = 2.6215e-14, No Iterations 1
Min/max T:314.055 314.869
ExecutionTime = 3.34 s  ClockTime = 4 s

Region: air Courant Number mean: 1.03449 max: 10.3564
Region: ups1 Diffusion Number mean: 0.000200021 max: 0.000954386
deltaT = 0.169157
Time = 8.8159

diagonal:  Solving for rho, Initial residual = 0, Final residual = 0, No Iterations 0
DILUPBiCGStab:  Solving for Ux, Initial residual = 0.0171601, Final residual = 9.58224e-09, No Iterations 2
DILUPBiCGStab:  Solving for Uy, Initial residual = 0.0190137, Final residual = 3.40824e-10, No Iterations 3
DILUPBiCGStab:  Solving for Uz, Initial residual = 0.0100187, Final residual = 8.53082e-09, No Iterations 2
DILUPBiCGStab:  Solving for h, Initial residual = 0.0185399, Final residual = 5.40731e-10, No Iterations 3
Min/max T:282.877 315.649

Solving for fluid region air
GAMG:  Solving for p_rgh, Initial residual = 0.0250559, Final residual = 7.70778e-07, No Iterations 7
diagonal:  Solving for rho, Initial residual = 0, Final residual = 0, No Iterations 0
time step continuity errors (air): sum local = 5.10975e-08, global = 8.181e-10, cumulative = 2.49473e-08
DILUPBiCGStab:  Solving for epsilon, Initial residual = 0.0110012, Final residual = 2.87159e-09, No Iterations 2
bounding epsilon, min: -0.014353 max: 60.8559 average: 0.604405
DILUPBiCGStab:  Solving for k, Initial residual = 0.0176813, Final residual = 1.35704e-08, No Iterations 2
bounding k, min: -0.025426 max: 9.40825 average: 0.371525

Solving for solid region ups1
GAMG:  Solving for h, Initial residual = 0.697404, Final residual = 8.31688e-15, No Iterations 1
Min/max T:314.034 314.869
ExecutionTime = 3.41 s  ClockTime = 4 s

Region: air Courant Number mean: 1.04985 max: 10.4631
Region: ups1 Diffusion Number mean: 0.000200021 max: 0.000954386
deltaT = 0.169157
Time = 8.98506

diagonal:  Solving for rho, Initial residual = 0, Final residual = 0, No Iterations 0
DILUPBiCGStab:  Solving for Ux, Initial residual = 0.0167189, Final residual = 1.098e-08, No Iterations 2
DILUPBiCGStab:  Solving for Uy, Initial residual = 0.0185865, Final residual = 3.3349e-10, No Iterations 3
DILUPBiCGStab:  Solving for Uz, Initial residual = 0.00989189, Final residual = 8.49769e-09, No Iterations 2
DILUPBiCGStab:  Solving for h, Initial residual = 0.0181657, Final residual = 5.61756e-10, No Iterations 3
Min/max T:282.914 315.662

Solving for fluid region air
GAMG:  Solving for p_rgh, Initial residual = 0.0246815, Final residual = 7.3842e-07, No Iterations 7
diagonal:  Solving for rho, Initial residual = 0, Final residual = 0, No Iterations 0
time step continuity errors (air): sum local = 5.00913e-08, global = 9.00644e-10, cumulative = 2.58479e-08
DILUPBiCGStab:  Solving for epsilon, Initial residual = 0.0107853, Final residual = 2.68831e-09, No Iterations 2
bounding epsilon, min: -0.0280169 max: 64.4653 average: 0.605316
DILUPBiCGStab:  Solving for k, Initial residual = 0.0174534, Final residual = 1.31503e-08, No Iterations 2
bounding k, min: -0.0472704 max: 9.43574 average: 0.368081

Solving for solid region ups1
GAMG:  Solving for h, Initial residual = 0.660777, Final residual = 5.9219e-15, No Iterations 1
Min/max T:314.023 314.869
ExecutionTime = 3.46 s  ClockTime = 4 s

Region: air Courant Number mean: 1.06525 max: 10.5644
Region: ups1 Diffusion Number mean: 0.000200021 max: 0.000954386
deltaT = 0.169157
Time = 9.15421

diagonal:  Solving for rho, Initial residual = 0, Final residual = 0, No Iterations 0
DILUPBiCGStab:  Solving for Ux, Initial residual = 0.016287, Final residual = 1.18789e-08, No Iterations 2
DILUPBiCGStab:  Solving for Uy, Initial residual = 0.0181477, Final residual = 3.76852e-10, No Iterations 3
DILUPBiCGStab:  Solving for Uz, Initial residual = 0.0098075, Final residual = 8.17483e-09, No Iterations 2
DILUPBiCGStab:  Solving for h, Initial residual = 0.0177831, Final residual = 5.95766e-10, No Iterations 3
Min/max T:282.916 315.675

Solving for fluid region air
GAMG:  Solving for p_rgh, Initial residual = 0.0242921, Final residual = 6.34018e-07, No Iterations 7
diagonal:  Solving for rho, Initial residual = 0, Final residual = 0, No Iterations 0
time step continuity errors (air): sum local = 4.40686e-08, global = -1.00621e-09, cumulative = 2.48417e-08
DILUPBiCGStab:  Solving for epsilon, Initial residual = 0.0105303, Final residual = 2.54285e-09, No Iterations 2
bounding epsilon, min: -0.0137702 max: 67.7562 average: 0.605388
[...]
deltaT = 0.128582
Time = 178.457

diagonal:  Solving for rho, Initial residual = 0, Final residual = 0, No Iterations 0
DILUPBiCGStab:  Solving for Ux, Initial residual = 0.00712963, Final residual = 2.42717e-09, No Iterations 2
DILUPBiCGStab:  Solving for Uy, Initial residual = 0.00639259, Final residual = 2.28772e-09, No Iterations 2
DILUPBiCGStab:  Solving for Uz, Initial residual = 0.00515969, Final residual = 2.6231e-09, No Iterations 2
DILUPBiCGStab:  Solving for h, Initial residual = 0.0071455, Final residual = 1.68948e-09, No Iterations 2
Min/max T:279.666 315.206

Solving for fluid region air
GAMG:  Solving for p_rgh, Initial residual = 0.0122305, Final residual = 5.05875e-07, No Iterations 6
diagonal:  Solving for rho, Initial residual = 0, Final residual = 0, No Iterations 0
time step continuity errors (air): sum local = 6.92115e-08, global = -2.87169e-10, cumulative = -9.91292e-08
DILUPBiCGStab:  Solving for epsilon, Initial residual = 0.00739751, Final residual = 6.19452e-10, No Iterations 2
bounding epsilon, min: -0.0733927 max: 107.287 average: 0.566879
DILUPBiCGStab:  Solving for k, Initial residual = 0.00888215, Final residual = 2.35764e-09, No Iterations 2
bounding k, min: -0.000624715 max: 10.8299 average: 0.269505

Solving for solid region ups1
GAMG:  Solving for h, Initial residual = 0.00439388, Final residual = 0, No Iterations 1
Min/max T:314.463 315.235
ExecutionTime = 84.01 s  ClockTime = 109 s

Region: air Courant Number mean: 1.65223 max: 10.1809
Region: ups1 Diffusion Number mean: 0.000152042 max: 0.000725459
deltaT = 0.128582
Time = 178.586

diagonal:  Solving for rho, Initial residual = 0, Final residual = 0, No Iterations 0
DILUPBiCGStab:  Solving for Ux, Initial residual = 0.00716291, Final residual = 2.45468e-09, No Iterations 2
DILUPBiCGStab:  Solving for Uy, Initial residual = 0.00637504, Final residual = 2.29264e-09, No Iterations 2
DILUPBiCGStab:  Solving for Uz, Initial residual = 0.00514327, Final residual = 2.6246e-09, No Iterations 2
DILUPBiCGStab:  Solving for h, Initial residual = 0.00715891, Final residual = 1.67151e-09, No Iterations 2
Min/max T:279.647 315.206

Solving for fluid region air
GAMG:  Solving for p_rgh, Initial residual = 0.0122116, Final residual = 4.89985e-07, No Iterations 6
diagonal:  Solving for rho, Initial residual = 0, Final residual = 0, No Iterations 0
time step continuity errors (air): sum local = 6.70701e-08, global = -5.04945e-10, cumulative = -9.96341e-08
DILUPBiCGStab:  Solving for epsilon, Initial residual = 0.00737303, Final residual = 6.21596e-10, No Iterations 2
bounding epsilon, min: -0.0222682 max: 106.904 average: 0.565055
DILUPBiCGStab:  Solving for k, Initial residual = 0.00895154, Final residual = 2.34704e-09, No Iterations 2
bounding k, min: -0.00231513 max: 10.4951 average: 0.269059

Solving for solid region ups1
GAMG:  Solving for h, Initial residual = 0.00439115, Final residual = 0, No Iterations 1
Min/max T:314.464 315.236
ExecutionTime = 84.06 s  ClockTime = 109 s

Region: air Courant Number mean: 1.65205 max: 10.1856
Region: ups1 Diffusion Number mean: 0.000152042 max: 0.000725459
deltaT = 0.128582
Time = 178.714

diagonal:  Solving for rho, Initial residual = 0, Final residual = 0, No Iterations 0
DILUPBiCGStab:  Solving for Ux, Initial residual = 0.00719849, Final residual = 2.4841e-09, No Iterations 2
DILUPBiCGStab:  Solving for Uy, Initial residual = 0.00635645, Final residual = 2.29089e-09, No Iterations 2
DILUPBiCGStab:  Solving for Uz, Initial residual = 0.00512389, Final residual = 2.61483e-09, No Iterations 2
DILUPBiCGStab:  Solving for h, Initial residual = 0.00716903, Final residual = 1.65368e-09, No Iterations 2
Min/max T:279.629 315.205

Solving for fluid region air
GAMG:  Solving for p_rgh, Initial residual = 0.0122166, Final residual = 4.51608e-07, No Iterations 6
diagonal:  Solving for rho, Initial residual = 0, Final residual = 0, No Iterations 0
time step continuity errors (air): sum local = 6.18559e-08, global = -5.4637e-10, cumulative = -1.0018e-07
DILUPBiCGStab:  Solving for epsilon, Initial residual = 0.00730317, Final residual = 6.19935e-10, No Iterations 2
bounding epsilon, min: -0.18302 max: 106.148 average: 0.563197
DILUPBiCGStab:  Solving for k, Initial residual = 0.00894355, Final residual = 2.3312e-09, No Iterations 2
bounding k, min: -0.00183002 max: 10.1375 average: 0.268642

Solving for solid region ups1
GAMG:  Solving for h, Initial residual = 0.00438802, Final residual = 5.56449e-17, No Iterations 1
Min/max T:314.465 315.236
ExecutionTime = 84.12 s  ClockTime = 110 s

Region: air Courant Number mean: 1.6519 max: 10.1885
Region: ups1 Diffusion Number mean: 0.000152042 max: 0.000725459
deltaT = 0.128582
Time = 178.843

diagonal:  Solving for rho, Initial residual = 0, Final residual = 0, No Iterations 0
DILUPBiCGStab:  Solving for Ux, Initial residual = 0.00723156, Final residual = 2.51543e-09, No Iterations 2
DILUPBiCGStab:  Solving for Uy, Initial residual = 0.00633436, Final residual = 2.28304e-09, No Iterations 2
DILUPBiCGStab:  Solving for Uz, Initial residual = 0.00509644, Final residual = 2.58625e-09, No Iterations 2
DILUPBiCGStab:  Solving for h, Initial residual = 0.00717714, Final residual = 1.63264e-09, No Iterations 2
Min/max T:279.61 315.205

Solving for fluid region air
GAMG:  Solving for p_rgh, Initial residual = 0.0121517, Final residual = 4.1735e-07, No Iterations 6
diagonal:  Solving for rho, Initial residual = 0, Final residual = 0, No Iterations 0
time step continuity errors (air): sum local = 5.71999e-08, global = -2.70961e-10, cumulative = -1.00451e-07
DILUPBiCGStab:  Solving for epsilon, Initial residual = 0.00742775, Final residual = 6.01798e-10, No Iterations 2
bounding epsilon, min: -0.0631108 max: 105.026 average: 0.561497
DILUPBiCGStab:  Solving for k, Initial residual = 0.00896804, Final residual = 2.30439e-09, No Iterations 2
bounding k, min: -0.00180056 max: 9.75936 average: 0.268253

Solving for solid region ups1
GAMG:  Solving for h, Initial residual = 0.00438502, Final residual = 0, No Iterations 1
Min/max T:314.466 315.236
ExecutionTime = 84.17 s  ClockTime = 110 s

Region: air Courant Number mean: 1.65171 max: 10.189
Region: ups1 Diffusion Number mean: 0.000152042 max: 0.000725459
deltaT = 0.128582
Time = 178.971

diagonal:  Solving for rho, Initial residual = 0, Final residual = 0, No Iterations 0
DILUPBiCGStab:  Solving for Ux, Initial residual = 0.00726981, Final residual = 2.53405e-09, No Iterations 2
DILUPBiCGStab:  Solving for Uy, Initial residual = 0.0063122, Final residual = 2.26684e-09, No Iterations 2
DILUPBiCGStab:  Solving for Uz, Initial residual = 0.00506939, Final residual = 2.55096e-09, No Iterations 2
DILUPBiCGStab:  Solving for h, Initial residual = 0.00717657, Final residual = 1.60535e-09, No Iterations 2
Min/max T:279.59 315.204

Solving for fluid region air
GAMG:  Solving for p_rgh, Initial residual = 0.0121049, Final residual = 3.66169e-07, No Iterations 6
diagonal:  Solving for rho, Initial residual = 0, Final residual = 0, No Iterations 0
time step continuity errors (air): sum local = 5.02237e-08, global = -3.34896e-10, cumulative = -1.00786e-07
DILUPBiCGStab:  Solving for epsilon, Initial residual = 0.00742187, Final residual = 6.00219e-10, No Iterations 2
bounding epsilon, min: -0.0496692 max: 103.542 average: 0.559724
DILUPBiCGStab:  Solving for k, Initial residual = 0.0089928, Final residual = 2.279e-09, No Iterations 2
bounding k, min: -0.00222964 max: 9.36202 average: 0.26789

Solving for solid region ups1
GAMG:  Solving for h, Initial residual = 0.00438223, Final residual = 0, No Iterations 1
Min/max T:314.467 315.237
ExecutionTime = 84.22 s  ClockTime = 110 s

Region: air Courant Number mean: 1.65149 max: 10.187
Region: ups1 Diffusion Number mean: 0.000152042 max: 0.000725459
deltaT = 0.128582
Time = 179.1

diagonal:  Solving for rho, Initial residual = 0, Final residual = 0, No Iterations 0
DILUPBiCGStab:  Solving for Ux, Initial residual = 0.00730697, Final residual = 2.55183e-09, No Iterations 2
DILUPBiCGStab:  Solving for Uy, Initial residual = 0.00629127, Final residual = 2.2516e-09, No Iterations 2
DILUPBiCGStab:  Solving for Uz, Initial residual = 0.00503513, Final residual = 2.50341e-09, No Iterations 2
DILUPBiCGStab:  Solving for h, Initial residual = 0.00718026, Final residual = 1.57933e-09, No Iterations 2
Min/max T:279.571 315.203

Solving for fluid region air
GAMG:  Solving for p_rgh, Initial residual = 0.0120479, Final residual = 3.45997e-07, No Iterations 6
diagonal:  Solving for rho, Initial residual = 0, Final residual = 0, No Iterations 0
time step continuity errors (air): sum local = 4.75177e-08, global = -3.26882e-10, cumulative = -1.01113e-07
DILUPBiCGStab:  Solving for epsilon, Initial residual = 0.00745259, Final residual = 5.96219e-10, No Iterations 2
bounding epsilon, min: -0.177887 max: 101.699 average: 0.557929
DILUPBiCGStab:  Solving for k, Initial residual = 0.00902191, Final residual = 2.26224e-09, No Iterations 2

Solving for solid region ups1
GAMG:  Solving for h, Initial residual = 0.00437942, Final residual = 0, No Iterations 1
Min/max T:314.468 315.237
ExecutionTime = 84.28 s  ClockTime = 110 s

Region: air Courant Number mean: 1.65124 max: 10.2045
Region: ups1 Diffusion Number mean: 0.000152042 max: 0.000725459
deltaT = 0.128582
Time = 179.229

diagonal:  Solving for rho, Initial residual = 0, Final residual = 0, No Iterations 0
DILUPBiCGStab:  Solving for Ux, Initial residual = 0.00734228, Final residual = 2.5775e-09, No Iterations 2
DILUPBiCGStab:  Solving for Uy, Initial residual = 0.00627181, Final residual = 2.24039e-09, No Iterations 2
DILUPBiCGStab:  Solving for Uz, Initial residual = 0.00499856, Final residual = 2.45291e-09, No Iterations 2
DILUPBiCGStab:  Solving for h, Initial residual = 0.00718822, Final residual = 1.56408e-09, No Iterations 2
Min/max T:279.552 315.202

Solving for fluid region air
GAMG:  Solving for p_rgh, Initial residual = 0.0120133, Final residual = 3.27608e-07, No Iterations 6
diagonal:  Solving for rho, Initial residual = 0, Final residual = 0, No Iterations 0
time step continuity errors (air): sum local = 4.50629e-08, global = -2.5865e-10, cumulative = -1.01372e-07
DILUPBiCGStab:  Solving for epsilon, Initial residual = 0.00745964, Final residual = 5.84553e-10, No Iterations 2
bounding epsilon, min: -0.0322515 max: 99.4906 average: 0.556227
DILUPBiCGStab:  Solving for k, Initial residual = 0.00903587, Final residual = 2.2437e-09, No Iterations 2
bounding k, min: -0.00147167 max: 8.51326 average: 0.267275

Solving for solid region ups1
GAMG:  Solving for h, Initial residual = 0.0043766, Final residual = 2.7738e-17, No Iterations 1
Min/max T:314.468 315.237
ExecutionTime = 84.33 s  ClockTime = 110 s

Region: air Courant Number mean: 1.65092 max: 10.2276
Region: ups1 Diffusion Number mean: 0.000152042 max: 0.000725459
deltaT = 0.128582
Time = 179.357

diagonal:  Solving for rho, Initial residual = 0, Final residual = 0, No Iterations 0
DILUPBiCGStab:  Solving for Ux, Initial residual = 0.00737266, Final residual = 2.60971e-09, No Iterations 2
DILUPBiCGStab:  Solving for Uy, Initial residual = 0.0062501, Final residual = 2.22958e-09, No Iterations 2
DILUPBiCGStab:  Solving for Uz, Initial residual = 0.00496762, Final residual = 2.41077e-09, No Iterations 2
DILUPBiCGStab:  Solving for h, Initial residual = 0.00719583, Final residual = 1.54927e-09, No Iterations 2
Min/max T:279.533 315.201

Solving for fluid region air
GAMG:  Solving for p_rgh, Initial residual = 0.0119457, Final residual = 3.167e-07, No Iterations 6
diagonal:  Solving for rho, Initial residual = 0, Final residual = 0, No Iterations 0
time step continuity errors (air): sum local = 4.36303e-08, global = -1.92698e-10, cumulative = -1.01565e-07
DILUPBiCGStab:  Solving for epsilon, Initial residual = 0.00750068, Final residual = 5.78144e-10, No Iterations 2
bounding epsilon, min: -0.0475769 max: 96.9031 average: 0.554611
DILUPBiCGStab:  Solving for k, Initial residual = 0.00907429, Final residual = 2.23591e-09, No Iterations 2
bounding k, min: -0.0012286 max: 8.30402 average: 0.267023

Solving for solid region ups1
GAMG:  Solving for h, Initial residual = 0.00437359, Final residual = 0, No Iterations 1
Min/max T:314.469 315.237
ExecutionTime = 84.38 s  ClockTime = 110 s

Region: air Courant Number mean: 1.65056 max: 10.2395
Region: ups1 Diffusion Number mean: 0.000152042 max: 0.000725459
deltaT = 0.128582
Time = 179.486

diagonal:  Solving for rho, Initial residual = 0, Final residual = 0, No Iterations 0
DILUPBiCGStab:  Solving for Ux, Initial residual = 0.00740726, Final residual = 2.6311e-09, No Iterations 2
DILUPBiCGStab:  Solving for Uy, Initial residual = 0.00623191, Final residual = 2.22126e-09, No Iterations 2
DILUPBiCGStab:  Solving for Uz, Initial residual = 0.00493642, Final residual = 2.37537e-09, No Iterations 2
DILUPBiCGStab:  Solving for h, Initial residual = 0.00719734, Final residual = 1.53304e-09, No Iterations 2
Min/max T:279.515 315.199

Solving for fluid region air
GAMG:  Solving for p_rgh, Initial residual = 0.0119249, Final residual = 9.8712e-07, No Iterations 5
diagonal:  Solving for rho, Initial residual = 0, Final residual = 0, No Iterations 0
time step continuity errors (air): sum local = 1.36216e-07, global = -7.85292e-10, cumulative = -1.0235e-07
DILUPBiCGStab:  Solving for epsilon, Initial residual = 0.00773255, Final residual = 5.37882e-10, No Iterations 2
bounding epsilon, min: -0.1289 max: 93.902 average: 0.553296
DILUPBiCGStab:  Solving for k, Initial residual = 0.00908124, Final residual = 2.21435e-09, No Iterations 2

Solving for solid region ups1
GAMG:  Solving for h, Initial residual = 0.00437077, Final residual = 0, No Iterations 1
Min/max T:314.468 315.238
ExecutionTime = 84.43 s  ClockTime = 110 s

Region: air Courant Number mean: 1.65017 max: 10.2413
Region: ups1 Diffusion Number mean: 0.000152042 max: 0.000725459
deltaT = 0.128582
Time = 179.614

diagonal:  Solving for rho, Initial residual = 0, Final residual = 0, No Iterations 0
DILUPBiCGStab:  Solving for Ux, Initial residual = 0.00744308, Final residual = 2.6547e-09, No Iterations 2
DILUPBiCGStab:  Solving for Uy, Initial residual = 0.00621748, Final residual = 2.224e-09, No Iterations 2
DILUPBiCGStab:  Solving for Uz, Initial residual = 0.00490302, Final residual = 2.33372e-09, No Iterations 2
DILUPBiCGStab:  Solving for h, Initial residual = 0.0071915, Final residual = 1.52069e-09, No Iterations 2
Min/max T:279.497 315.198

Solving for fluid region air
GAMG:  Solving for p_rgh, Initial residual = 0.0118792, Final residual = 9.93273e-07, No Iterations 5
diagonal:  Solving for rho, Initial residual = 0, Final residual = 0, No Iterations 0
time step continuity errors (air): sum local = 1.37304e-07, global = -5.77189e-10, cumulative = -1.02927e-07
DILUPBiCGStab:  Solving for epsilon, Initial residual = 0.00761949, Final residual = 5.49754e-10, No Iterations 2
bounding epsilon, min: -0.0179249 max: 90.4512 average: 0.551657
DILUPBiCGStab:  Solving for k, Initial residual = 0.00909581, Final residual = 2.19118e-09, No Iterations 2
bounding k, min: -0.00268078 max: 9.04372 average: 0.266623

Solving for solid region ups1
GAMG:  Solving for h, Initial residual = 0.00436769, Final residual = 0, No Iterations 1
Min/max T:314.467 315.238
ExecutionTime = 84.49 s  ClockTime = 110 s

Region: air Courant Number mean: 1.64974 max: 10.241
Region: ups1 Diffusion Number mean: 0.000152042 max: 0.000725459
deltaT = 0.128582
Time = 179.743

diagonal:  Solving for rho, Initial residual = 0, Final residual = 0, No Iterations 0
DILUPBiCGStab:  Solving for Ux, Initial residual = 0.00747777, Final residual = 2.66794e-09, No Iterations 2
DILUPBiCGStab:  Solving for Uy, Initial residual = 0.00620683, Final residual = 2.22394e-09, No Iterations 2
DILUPBiCGStab:  Solving for Uz, Initial residual = 0.00487039, Final residual = 2.28403e-09, No Iterations 2
DILUPBiCGStab:  Solving for h, Initial residual = 0.00718815, Final residual = 1.51363e-09, No Iterations 2
Min/max T:279.48 315.2

Solving for fluid region air
GAMG:  Solving for p_rgh, Initial residual = 0.0118941, Final residual = 9.7081e-07, No Iterations 5
diagonal:  Solving for rho, Initial residual = 0, Final residual = 0, No Iterations 0
time step continuity errors (air): sum local = 1.34422e-07, global = -6.13512e-10, cumulative = -1.03541e-07
DILUPBiCGStab:  Solving for epsilon, Initial residual = 0.00768667, Final residual = 5.56024e-10, No Iterations 2
bounding epsilon, min: -0.0661929 max: 86.5034 average: 0.55011
DILUPBiCGStab:  Solving for k, Initial residual = 0.00911534, Final residual = 2.17963e-09, No Iterations 2
bounding k, min: -0.000896299 max: 9.4461 average: 0.266488

Solving for solid region ups1
GAMG:  Solving for h, Initial residual = 0.0043646, Final residual = 0, No Iterations 1
Min/max T:314.466 315.238
ExecutionTime = 84.54 s  ClockTime = 110 s

Region: air Courant Number mean: 1.64933 max: 10.3032
Region: ups1 Diffusion Number mean: 0.000152042 max: 0.000725459
deltaT = 0.128582
Time = 179.871

diagonal:  Solving for rho, Initial residual = 0, Final residual = 0, No Iterations 0
DILUPBiCGStab:  Solving for Ux, Initial residual = 0.00751793, Final residual = 2.67431e-09, No Iterations 2
DILUPBiCGStab:  Solving for Uy, Initial residual = 0.00620194, Final residual = 2.2109e-09, No Iterations 2
DILUPBiCGStab:  Solving for Uz, Initial residual = 0.00484476, Final residual = 2.21543e-09, No Iterations 2
DILUPBiCGStab:  Solving for h, Initial residual = 0.00718278, Final residual = 1.51159e-09, No Iterations 2
Min/max T:279.464 315.201

Solving for fluid region air
GAMG:  Solving for p_rgh, Initial residual = 0.0119991, Final residual = 9.9335e-07, No Iterations 5
diagonal:  Solving for rho, Initial residual = 0, Final residual = 0, No Iterations 0
time step continuity errors (air): sum local = 1.37768e-07, global = -2.57198e-10, cumulative = -1.03798e-07
DILUPBiCGStab:  Solving for epsilon, Initial residual = 0.00763374, Final residual = 5.54473e-10, No Iterations 2
bounding epsilon, min: -0.0283618 max: 82.0257 average: 0.548627
DILUPBiCGStab:  Solving for k, Initial residual = 0.00913261, Final residual = 2.17034e-09, No Iterations 2

Solving for solid region ups1
GAMG:  Solving for h, Initial residual = 0.00436166, Final residual = 0, No Iterations 1
Min/max T:314.464 315.238
ExecutionTime = 84.59 s  ClockTime = 110 s

Region: air Courant Number mean: 1.64894 max: 10.3593
Region: ups1 Diffusion Number mean: 0.000152042 max: 0.000725459
deltaT = 0.128582
Time = 180

diagonal:  Solving for rho, Initial residual = 0, Final residual = 0, No Iterations 0
DILUPBiCGStab:  Solving for Ux, Initial residual = 0.00756223, Final residual = 2.66566e-09, No Iterations 2
DILUPBiCGStab:  Solving for Uy, Initial residual = 0.00620032, Final residual = 2.20911e-09, No Iterations 2
DILUPBiCGStab:  Solving for Uz, Initial residual = 0.00482342, Final residual = 2.13448e-09, No Iterations 2
DILUPBiCGStab:  Solving for h, Initial residual = 0.00717584, Final residual = 1.51491e-09, No Iterations 2
Min/max T:279.448 315.203

Solving for fluid region air
GAMG:  Solving for p_rgh, Initial residual = 0.0120833, Final residual = 3.03099e-07, No Iterations 6
diagonal:  Solving for rho, Initial residual = 0, Final residual = 0, No Iterations 0
time step continuity errors (air): sum local = 4.21051e-08, global = 5.13442e-11, cumulative = -1.03746e-07
DILUPBiCGStab:  Solving for epsilon, Initial residual = 0.00771661, Final residual = 5.44458e-10, No Iterations 2
bounding epsilon, min: -0.389545 max: 76.9942 average: 0.547258
DILUPBiCGStab:  Solving for k, Initial residual = 0.00919082, Final residual = 2.15094e-09, No Iterations 2

Solving for solid region ups1
GAMG:  Solving for h, Initial residual = 0.0043587, Final residual = 0, No Iterations 1
Min/max T:314.461 315.239
ExecutionTime = 84.72 s  ClockTime = 110 s

End

